6oio_ligand
     RDKit          3D

 41 43  0  0  0  0  0  0  0  0999 V2000
    6.6553   15.0898   26.8803 C   0  0  0  0  0  0  0  0  0  0  0  0
    6.2432   16.2247   26.1852 C   0  0  0  0  0  0  0  0  0  0  0  0
    6.7713   18.1502   24.8220 C   0  0  0  0  0  0  0  0  0  0  0  0
    7.1738   17.0153   25.5432 C   0  0  0  0  0  0  0  0  0  0  0  0
    4.8328   16.4360   26.0422 C   0  0  0  0  0  0  0  0  0  0  0  0
    4.4167   17.5852   25.3325 C   0  0  0  0  0  0  0  0  0  0  0  0
    5.3678   18.4594   24.7368 C   0  0  0  0  0  0  0  0  0  0  0  0
    7.7247   18.9789   24.1651 C   0  0  0  0  0  0  0  0  0  0  0  0
    9.6022   20.7058   22.7670 C   0  0  0  0  0  0  0  0  0  0  0  0
    9.6092   20.6120   24.1968 C   0  0  0  0  0  0  0  0  0  0  0  0
    8.6555   19.7682   24.8510 C   0  0  0  0  0  0  0  0  0  0  0  0
    8.6614   19.8831   22.1239 C   0  0  0  0  0  0  0  0  0  0  0  0
    7.6899   19.0962   22.7913 C   0  0  0  0  0  0  0  0  0  0  0  0
    7.7003   15.0572   27.4896 O   0  0  0  0  0  0  0  0  0  0  0  0
    5.8514   14.0129   26.8099 N   0  0  0  0  0  0  0  0  0  0  0  0
    6.2963   12.6739   27.4562 N   0  0  0  0  0  0  0  0  0  0  0  0
    5.1842   11.3131   27.0481 S   0  0  1  0  0  6  0  0  0  0  0  0
    3.8130   11.7566   26.9214 O   0  0  0  0  0  0  0  0  0  0  0  0
    5.6339   10.4015   25.8944 O   0  0  0  0  0  0  0  0  0  0  0  0
    5.2188   10.1218   28.4580 C   0  0  0  0  0  0  0  0  0  0  0  0
    4.2466   10.2120   29.4648 C   0  0  0  0  0  0  0  0  0  0  0  0
    4.3820    9.3055   30.5547 C   0  0  0  0  0  0  0  0  0  0  0  0
    5.3546    8.2999   30.4555 C   0  0  0  0  0  0  0  0  0  0  0  0
    6.2696    8.2256   29.3977 C   0  0  0  0  0  0  0  0  0  0  0  0
    6.2090    9.1983   28.3586 C   0  0  0  0  0  0  0  0  0  0  0  0
    8.2255   16.7576   25.5961 H   0  0  0  0  0  0  0  0  0  0  0  0
    4.1136   15.7418   26.4617 H   0  0  0  0  0  0  0  0  0  0  0  0
    3.3588   17.8033   25.2408 H   0  0  0  0  0  0  0  0  0  0  0  0
    5.0374   19.3540   24.2213 H   0  0  0  0  0  0  0  0  0  0  0  0
   10.2719   21.3616   22.2225 H   0  0  0  0  0  0  0  0  0  0  0  0
   10.3304   21.1751   24.7781 H   0  0  0  0  0  0  0  0  0  0  0  0
    8.6540   19.7389   25.9346 H   0  0  0  0  0  0  0  0  0  0  0  0
    8.6803   19.8479   21.0406 H   0  0  0  0  0  0  0  0  0  0  0  0
    6.9202   18.5871   22.2227 H   0  0  0  0  0  0  0  0  0  0  0  0
    4.9696   14.0753   26.3425 H   0  0  0  0  0  0  0  0  0  0  0  0
    7.1073   12.5764   28.0332 H   0  0  0  0  0  0  0  0  0  0  0  0
    3.4373   10.9316   29.4161 H   0  0  0  0  0  0  0  0  0  0  0  0
    3.7531    9.3900   31.4336 H   0  0  0  0  0  0  0  0  0  0  0  0
    5.4004    7.5459   31.2330 H   0  0  0  0  0  0  0  0  0  0  0  0
    7.0142    7.4383   29.3700 H   0  0  0  0  0  0  0  0  0  0  0  0
    6.9137    9.2008   27.5350 H   0  0  0  0  0  0  0  0  0  0  0  0
  2  1  1  0
  1 14  2  0
  1 15  1  0
  4  2  2  0
  2  5  1  0
  3  4  1  0
  3  7  2  0
  8  3  1  0
  6  5  2  0
  7  6  1  0
 11  8  2  0
  8 13  1  0
 10  9  2  0
  9 12  1  0
 10 11  1  0
 12 13  2  0
 15 16  1  0
 17 16  1  1
 17 18  2  0
 17 19  2  0
 17 20  1  0
 20 21  2  0
 20 25  1  0
 21 22  1  0
 22 23  2  0
 23 24  1  0
 24 25  2  0
  4 26  1  0
  5 27  1  0
  6 28  1  0
  7 29  1  0
  9 30  1  0
 10 31  1  0
 11 32  1  0
 12 33  1  0
 13 34  1  0
 15 35  1  0
 16 36  1  0
 21 37  1  0
 22 38  1  0
 23 39  1  0
 24 40  1  0
 25 41  1  0
M  END
