MODEL 1
REMARK VINA RESULT:     3.365      0.000      0.000
REMARK INTER + INTRA:           8.483
REMARK INTER:                   9.226
REMARK INTRA:                  -0.743
REMARK UNBOUND:                 4.134
REMARK  Name = 6oio_ligand
REMARK  5 active torsions:
REMARK  status: ('A' for Active; 'I' for Inactive)
REMARK    1  A    between atoms: C_1  and  C_2
REMARK    2  A    between atoms: C_3  and  C_8
REMARK    3  A    between atoms: N_15  and  N_16
REMARK    4  A    between atoms: N_16  and  S_17
REMARK    5  A    between atoms: S_17  and  C_20
REMARK                            x       y       z     vdW  Elec       q    Type
REMARK                         _______ _______ _______ _____ _____    ______ ____
ROOT
ATOM      1  C   UNL     1       7.373  15.477  21.238  0.00  0.00    +0.000 C 
ATOM      2  O   UNL     1       6.851  15.788  22.285  0.00  0.00    +0.000 OA
ATOM      3  N   UNL     1       7.895  16.403  20.413  0.00  0.00    +0.000 N 
ATOM      4  H   UNL     1       8.365  16.122  19.578  0.00  0.00    +0.000 HD
ENDROOT
BRANCH   1   5
ATOM      5  C   UNL     1       7.430  14.152  20.809  0.00  0.00    +0.000 A 
ATOM      6  C   UNL     1       6.376  11.994  20.537  0.00  0.00    +0.000 A 
ATOM      7  C   UNL     1       6.340  13.325  20.984  0.00  0.00    +0.000 A 
ATOM      8  C   UNL     1       8.582  13.751  20.057  0.00  0.00    +0.000 A 
ATOM      9  C   UNL     1       8.635  12.409  19.618  0.00  0.00    +0.000 A 
ATOM     10  C   UNL     1       7.556  11.516  19.866  0.00  0.00    +0.000 A 
BRANCH   6  11
ATOM     11  C   UNL     1       5.261  11.128  20.723  0.00  0.00    +0.000 A 
ATOM     12  C   UNL     1       3.027   9.293  21.045  0.00  0.00    +0.000 A 
ATOM     13  C   UNL     1       3.592   9.974  22.173  0.00  0.00    +0.000 A 
ATOM     14  C   UNL     1       4.706  10.852  21.978  0.00  0.00    +0.000 A 
ATOM     15  C   UNL     1       3.608   9.615  19.807  0.00  0.00    +0.000 A 
ATOM     16  C   UNL     1       4.744  10.445  19.641  0.00  0.00    +0.000 A 
ENDBRANCH   6  11
ENDBRANCH   1   5
BRANCH   3  17
ATOM     17  N   UNL     1       7.765  17.909  20.762  0.00  0.00    +0.000 NA
ATOM     18  H   UNL     1       6.958  18.313  21.194  0.00  0.00    +0.000 HD
BRANCH  17  19
ATOM     19  S   UNL     1       9.233  18.850  20.300  0.00  0.00    +0.000 S 
ATOM     20  O   UNL     1      10.199  18.031  19.601  0.00  0.00    +0.000 OA
ATOM     21  O   UNL     1       8.976  20.201  19.614  0.00  0.00    +0.000 OA
BRANCH  19  22
ATOM     22  C   UNL     1      10.052  19.407  21.858  0.00  0.00    +0.000 A 
ATOM     23  C   UNL     1      10.319  18.476  22.872  0.00  0.00    +0.000 A 
ATOM     24  C   UNL     1      10.886  18.994  24.071  0.00  0.00    +0.000 A 
ATOM     25  C   UNL     1      11.285  20.339  24.081  0.00  0.00    +0.000 A 
ATOM     26  C   UNL     1      11.039  21.215  23.016  0.00  0.00    +0.000 A 
ATOM     27  C   UNL     1      10.372  20.727  21.857  0.00  0.00    +0.000 A 
ENDBRANCH  19  22
ENDBRANCH  17  19
ENDBRANCH   3  17
TORSDOF 5
ENDMDL
MODEL 2
REMARK VINA RESULT:     3.660      1.216      1.749
REMARK INTER + INTRA:           8.864
REMARK INTER:                   9.640
REMARK INTRA:                  -0.776
REMARK UNBOUND:                 4.134
REMARK  Name = 6oio_ligand
REMARK  5 active torsions:
REMARK  status: ('A' for Active; 'I' for Inactive)
REMARK    1  A    between atoms: C_1  and  C_2
REMARK    2  A    between atoms: C_3  and  C_8
REMARK    3  A    between atoms: N_15  and  N_16
REMARK    4  A    between atoms: N_16  and  S_17
REMARK    5  A    between atoms: S_17  and  C_20
REMARK                            x       y       z     vdW  Elec       q    Type
REMARK                         _______ _______ _______ _____ _____    ______ ____
ROOT
ATOM      1  C   UNL     1       7.021  14.854  21.508  0.00  0.00    +0.000 C 
ATOM      2  O   UNL     1       5.987  15.446  21.722  0.00  0.00    +0.000 OA
ATOM      3  N   UNL     1       8.217  15.423  21.747  0.00  0.00    +0.000 N 
ATOM      4  H   UNL     1       9.057  14.900  21.610  0.00  0.00    +0.000 HD
ENDROOT
BRANCH   1   5
ATOM      5  C   UNL     1       7.035  13.569  20.968  0.00  0.00    +0.000 A 
ATOM      6  C   UNL     1       5.926  11.463  20.551  0.00  0.00    +0.000 A 
ATOM      7  C   UNL     1       5.933  12.751  21.107  0.00  0.00    +0.000 A 
ATOM      8  C   UNL     1       8.156  13.209  20.151  0.00  0.00    +0.000 A 
ATOM      9  C   UNL     1       8.166  11.908  19.600  0.00  0.00    +0.000 A 
ATOM     10  C   UNL     1       7.075  11.020  19.806  0.00  0.00    +0.000 A 
BRANCH   6  11
ATOM     11  C   UNL     1       4.798  10.606  20.698  0.00  0.00    +0.000 A 
ATOM     12  C   UNL     1       2.455   8.920  21.060  0.00  0.00    +0.000 A 
ATOM     13  C   UNL     1       2.991   9.170  19.755  0.00  0.00    +0.000 A 
ATOM     14  C   UNL     1       4.132  10.023  19.614  0.00  0.00    +0.000 A 
ATOM     15  C   UNL     1       3.168   9.514  22.116  0.00  0.00    +0.000 A 
ATOM     16  C   UNL     1       4.263  10.399  21.953  0.00  0.00    +0.000 A 
ENDBRANCH   6  11
ENDBRANCH   1   5
BRANCH   3  17
ATOM     17  N   UNL     1       8.288  16.894  22.235  0.00  0.00    +0.000 NA
ATOM     18  H   UNL     1       8.387  17.159  23.194  0.00  0.00    +0.000 HD
BRANCH  17  19
ATOM     19  S   UNL     1       8.171  18.074  20.875  0.00  0.00    +0.000 S 
ATOM     20  O   UNL     1       8.471  17.458  19.600  0.00  0.00    +0.000 OA
ATOM     21  O   UNL     1       6.901  18.940  20.845  0.00  0.00    +0.000 OA
BRANCH  19  22
ATOM     22  C   UNL     1       9.461  19.367  21.146  0.00  0.00    +0.000 A 
ATOM     23  C   UNL     1      10.101  19.457  22.390  0.00  0.00    +0.000 A 
ATOM     24  C   UNL     1      11.031  20.524  22.546  0.00  0.00    +0.000 A 
ATOM     25  C   UNL     1      11.356  21.282  21.411  0.00  0.00    +0.000 A 
ATOM     26  C   UNL     1      10.720  21.114  20.174  0.00  0.00    +0.000 A 
ATOM     27  C   UNL     1       9.709  20.120  20.043  0.00  0.00    +0.000 A 
ENDBRANCH  19  22
ENDBRANCH  17  19
ENDBRANCH   3  17
TORSDOF 5
ENDMDL
