REMARK  Name = 6oio_ligand
REMARK  5 active torsions:
REMARK  status: ('A' for Active; 'I' for Inactive)
REMARK    1  A    between atoms: C_1  and  C_2
REMARK    2  A    between atoms: C_3  and  C_8
REMARK    3  A    between atoms: N_15  and  N_16
REMARK    4  A    between atoms: N_16  and  S_17
REMARK    5  A    between atoms: S_17  and  C_20
REMARK                            x       y       z     vdW  Elec       q    Type
REMARK                         _______ _______ _______ _____ _____    ______ ____
ROOT
ATOM      1  C   UNL     1       6.655  15.090  26.880  0.00  0.00    +0.000 C 
ATOM      2  O   UNL     1       7.700  15.057  27.490  0.00  0.00    +0.000 OA
ATOM      3  N   UNL     1       5.851  14.013  26.810  0.00  0.00    +0.000 N 
ATOM      4  H   UNL     1       4.970  14.075  26.343  0.00  0.00    +0.000 HD
ENDROOT
BRANCH   1   5
ATOM      5  C   UNL     1       6.243  16.225  26.185  0.00  0.00    +0.000 A 
ATOM      6  C   UNL     1       6.771  18.150  24.822  0.00  0.00    +0.000 A 
ATOM      7  C   UNL     1       7.174  17.015  25.543  0.00  0.00    +0.000 A 
ATOM      8  C   UNL     1       4.833  16.436  26.042  0.00  0.00    +0.000 A 
ATOM      9  C   UNL     1       4.417  17.585  25.332  0.00  0.00    +0.000 A 
ATOM     10  C   UNL     1       5.368  18.459  24.737  0.00  0.00    +0.000 A 
BRANCH   6  11
ATOM     11  C   UNL     1       7.725  18.979  24.165  0.00  0.00    +0.000 A 
ATOM     12  C   UNL     1       9.602  20.706  22.767  0.00  0.00    +0.000 A 
ATOM     13  C   UNL     1       9.609  20.612  24.197  0.00  0.00    +0.000 A 
ATOM     14  C   UNL     1       8.655  19.768  24.851  0.00  0.00    +0.000 A 
ATOM     15  C   UNL     1       8.661  19.883  22.124  0.00  0.00    +0.000 A 
ATOM     16  C   UNL     1       7.690  19.096  22.791  0.00  0.00    +0.000 A 
ENDBRANCH   6  11
ENDBRANCH   1   5
BRANCH   3  17
ATOM     17  N   UNL     1       6.296  12.674  27.456  0.00  0.00    +0.000 NA
ATOM     18  H   UNL     1       7.107  12.576  28.033  0.00  0.00    +0.000 HD
BRANCH  17  19
ATOM     19  S   UNL     1       5.184  11.313  27.048  0.00  0.00    +0.000 S 
ATOM     20  O   UNL     1       3.813  11.757  26.921  0.00  0.00    +0.000 OA
ATOM     21  O   UNL     1       5.634  10.402  25.894  0.00  0.00    +0.000 OA
BRANCH  19  22
ATOM     22  C   UNL     1       5.219  10.122  28.458  0.00  0.00    +0.000 A 
ATOM     23  C   UNL     1       4.247  10.212  29.465  0.00  0.00    +0.000 A 
ATOM     24  C   UNL     1       4.382   9.306  30.555  0.00  0.00    +0.000 A 
ATOM     25  C   UNL     1       5.355   8.300  30.456  0.00  0.00    +0.000 A 
ATOM     26  C   UNL     1       6.270   8.226  29.398  0.00  0.00    +0.000 A 
ATOM     27  C   UNL     1       6.209   9.198  28.359  0.00  0.00    +0.000 A 
ENDBRANCH  19  22
ENDBRANCH  17  19
ENDBRANCH   3  17
TORSDOF 5
