6t6a_ligand
     RDKit          3D

 24 26  0  0  0  0  0  0  0  0999 V2000
    6.5355    9.4077   26.5796 C   0  0  0  0  0  0  0  0  0  0  0  0
    5.9683   10.7305   26.1752 C   0  0  0  0  0  0  0  0  0  0  0  0
    4.6553   10.9815   26.4175 C   0  0  0  0  0  0  0  0  0  0  0  0
    7.8513    9.0934   26.3750 C   0  0  0  0  0  0  0  0  0  0  0  0
    8.8766    9.7995   25.8062 C   0  0  0  0  0  0  0  0  0  0  0  0
   10.1241    9.2143   25.7258 C   0  0  0  0  0  0  0  0  0  0  0  0
   10.3284    7.9276   26.2036 C   0  0  0  0  0  0  0  0  0  0  0  0
    9.2815    7.2170   26.7680 C   0  0  0  0  0  0  0  0  0  0  0  0
    8.0223    7.7930   26.8558 C   0  0  0  0  0  0  0  0  0  0  0  0
    6.6675   11.6247   25.6190 O   0  0  0  0  0  0  0  0  0  0  0  0
    3.6903   10.2153   26.9792 C   0  0  0  0  0  0  0  0  0  0  0  0
    3.6394    8.9557   27.4992 C   0  0  0  0  0  0  0  0  0  0  0  0
    4.5842    8.0386   27.6252 C   0  0  0  0  0  0  0  0  0  0  0  0
    5.9543    8.2954   27.1720 C   0  0  0  0  0  0  0  0  0  0  0  0
    6.8476    7.3150   27.3452 N   0  0  0  0  0  0  0  0  0  0  0  0
    9.5725    5.5410   27.3742 Cl  0  0  0  0  0  0  0  0  0  0  0  0
    4.3210   11.9700   26.1061 H   0  0  0  0  0  0  0  0  0  0  0  0
    8.7118   10.8010   25.4255 H   0  0  0  0  0  0  0  0  0  0  0  0
   10.9492    9.7632   25.2867 H   0  0  0  0  0  0  0  0  0  0  0  0
   11.3117    7.4765   26.1349 H   0  0  0  0  0  0  0  0  0  0  0  0
    2.7290   10.7248   27.0270 H   0  0  0  0  0  0  0  0  0  0  0  0
    2.6610    8.6558   27.8715 H   0  0  0  0  0  0  0  0  0  0  0  0
    4.3400    7.0765   28.0732 H   0  0  0  0  0  0  0  0  0  0  0  0
    6.6799    6.3886   27.7633 H   0  0  0  0  0  0  0  0  0  0  0  0
  1  2  1  0
  1  4  1  0
  1 14  2  0
  2  3  1  0
  2 10  2  0
  3 11  2  0
  4  5  2  0
  4  9  1  0
  5  6  1  0
  6  7  2  0
  7  8  1  0
  8  9  2  0
  8 16  1  0
  9 15  1  0
 11 12  1  0
 12 13  2  0
 13 14  1  0
 14 15  1  0
  3 17  1  0
  5 18  1  0
  6 19  1  0
  7 20  1  0
 11 21  1  0
 12 22  1  0
 13 23  1  0
 15 24  1  0
M  END
