MODEL 1
REMARK VINA RESULT:    -7.244      0.000      0.000
REMARK INTER + INTRA:          -8.859
REMARK INTER:                  -8.508
REMARK INTRA:                  -0.351
REMARK UNBOUND:                -0.345
REMARK  Name = 6gga_ligand
REMARK  5 active torsions:
REMARK  status: ('A' for Active; 'I' for Inactive)
REMARK    1  A    between atoms: N_7  and  C_14
REMARK    2  A    between atoms: C_13  and  C_16
REMARK    3  A    between atoms: C_14  and  C_15
REMARK    4  A    between atoms: C_16  and  N_17
REMARK    5  A    between atoms: N_17  and  C_18
REMARK                            x       y       z     vdW  Elec       q    Type
REMARK                         _______ _______ _______ _____ _____    ______ ____
ROOT
ATOM      1  C   UNL     1      90.781  95.425 -45.642  0.00  0.00    +0.000 A 
ATOM      2  C   UNL     1      90.779  94.273 -46.471  0.00  0.00    +0.000 A 
ATOM      3  C   UNL     1      91.089  92.993 -45.946  0.00  0.00    +0.000 A 
ATOM      4  C   UNL     1      91.400  92.858 -44.585  0.00  0.00    +0.000 A 
ATOM      5  C   UNL     1      91.395  93.996 -43.762  0.00  0.00    +0.000 A 
ATOM      6  C   UNL     1      91.090  95.261 -44.274  0.00  0.00    +0.000 A 
ATOM      7  N   UNL     1      91.667  94.086 -42.440  0.00  0.00    +0.000 N 
ATOM      8  C   UNL     1      91.182  96.153 -43.206  0.00  0.00    +0.000 A 
ATOM      9  C   UNL     1      91.535  95.391 -42.078  0.00  0.00    +0.000 A 
ATOM     10  C   UNL     1      90.993  97.548 -43.113  0.00  0.00    +0.000 A 
ATOM     11  C   UNL     1      91.706  96.020 -40.830  0.00  0.00    +0.000 A 
ATOM     12  C   UNL     1      91.522  97.420 -40.731  0.00  0.00    +0.000 A 
ATOM     13  C   UNL     1      91.154  98.192 -41.866  0.00  0.00    +0.000 A 
ATOM     14 BR   UNL     1      91.096  91.460 -47.012  0.00  0.00    +0.000 Br
ENDROOT
BRANCH   7  15
ATOM     15  C   UNL     1      92.015  92.974 -41.594  0.00  0.00    +0.000 C 
ATOM     16  C   UNL     1      93.546  92.829 -41.457  0.00  0.00    +0.000 C 
ENDBRANCH   7  15
BRANCH  13  17
ATOM     17  C   UNL     1      90.965  99.663 -41.767  0.00  0.00    +0.000 C 
BRANCH  17  18
ATOM     18  N   UNL     1      92.187 100.356 -41.312  0.00  0.00    +0.000 N 
ATOM     19  C   UNL     1      92.011 101.087 -40.039  0.00  0.00    +0.000 C 
ATOM     20  H   UNL     1      92.464 101.015 -42.024  0.00  0.00    +0.000 HD
ATOM     21  H   UNL     1      92.914  99.670 -41.189  0.00  0.00    +0.000 HD
ENDBRANCH  17  18
ENDBRANCH  13  17
TORSDOF 3
ENDMDL
MODEL 2
REMARK VINA RESULT:    -6.268      3.050      6.293
REMARK INTER + INTRA:          -7.712
REMARK INTER:                  -7.538
REMARK INTRA:                  -0.173
REMARK UNBOUND:                -0.345
REMARK  Name = 6gga_ligand
REMARK  5 active torsions:
REMARK  status: ('A' for Active; 'I' for Inactive)
REMARK    1  A    between atoms: N_7  and  C_14
REMARK    2  A    between atoms: C_13  and  C_16
REMARK    3  A    between atoms: C_14  and  C_15
REMARK    4  A    between atoms: C_16  and  N_17
REMARK    5  A    between atoms: N_17  and  C_18
REMARK                            x       y       z     vdW  Elec       q    Type
REMARK                         _______ _______ _______ _____ _____    ______ ____
ROOT
ATOM      1  C   UNL     1      90.741  97.745 -44.876  0.00  0.00    +0.000 A 
ATOM      2  C   UNL     1      90.752  98.885 -44.032  0.00  0.00    +0.000 A 
ATOM      3  C   UNL     1      90.988  98.763 -42.640  0.00  0.00    +0.000 A 
ATOM      4  C   UNL     1      91.218  97.496 -42.084  0.00  0.00    +0.000 A 
ATOM      5  C   UNL     1      91.215  96.367 -42.919  0.00  0.00    +0.000 A 
ATOM      6  C   UNL     1      90.983  96.482 -44.293  0.00  0.00    +0.000 A 
ATOM      7  N   UNL     1      91.408  95.069 -42.590  0.00  0.00    +0.000 N 
ATOM      8  C   UNL     1      91.042  95.190 -44.814  0.00  0.00    +0.000 A 
ATOM      9  C   UNL     1      91.315  94.335 -43.731  0.00  0.00    +0.000 A 
ATOM     10  C   UNL     1      90.882  94.682 -46.120  0.00  0.00    +0.000 A 
ATOM     11  C   UNL     1      91.434  92.947 -43.942  0.00  0.00    +0.000 A 
ATOM     12  C   UNL     1      91.271  92.432 -45.251  0.00  0.00    +0.000 A 
ATOM     13  C   UNL     1      91.006  93.294 -46.350  0.00  0.00    +0.000 A 
ATOM     14 BR   UNL     1      91.007 100.245 -41.504  0.00  0.00    +0.000 Br
ENDROOT
BRANCH   7  15
ATOM     15  C   UNL     1      91.679  94.589 -41.259  0.00  0.00    +0.000 C 
ATOM     16  C   UNL     1      93.068  93.918 -41.176  0.00  0.00    +0.000 C 
ENDBRANCH   7  15
BRANCH  13  17
ATOM     17  C   UNL     1      90.829  92.755 -47.724  0.00  0.00    +0.000 C 
BRANCH  17  18
ATOM     18  N   UNL     1      91.747  91.635 -48.009  0.00  0.00    +0.000 N 
ATOM     19  C   UNL     1      91.133  90.559 -48.816  0.00  0.00    +0.000 C 
ATOM     20  H   UNL     1      92.053  91.242 -47.132  0.00  0.00    +0.000 HD
ATOM     21  H   UNL     1      92.543  91.995 -48.511  0.00  0.00    +0.000 HD
ENDBRANCH  17  18
ENDBRANCH  13  17
TORSDOF 3
ENDMDL
MODEL 3
REMARK VINA RESULT:    -5.581      3.294      7.473
REMARK INTER + INTRA:          -6.905
REMARK INTER:                  -6.573
REMARK INTRA:                  -0.332
REMARK UNBOUND:                -0.345
REMARK  Name = 6gga_ligand
REMARK  5 active torsions:
REMARK  status: ('A' for Active; 'I' for Inactive)
REMARK    1  A    between atoms: N_7  and  C_14
REMARK    2  A    between atoms: C_13  and  C_16
REMARK    3  A    between atoms: C_14  and  C_15
REMARK    4  A    between atoms: C_16  and  N_17
REMARK    5  A    between atoms: N_17  and  C_18
REMARK                            x       y       z     vdW  Elec       q    Type
REMARK                         _______ _______ _______ _____ _____    ______ ____
ROOT
ATOM      1  C   UNL     1      91.823  93.327 -43.021  0.00  0.00    +0.000 A 
ATOM      2  C   UNL     1      91.938  94.179 -41.893  0.00  0.00    +0.000 A 
ATOM      3  C   UNL     1      91.528  95.535 -41.955  0.00  0.00    +0.000 A 
ATOM      4  C   UNL     1      90.997  96.045 -43.149  0.00  0.00    +0.000 A 
ATOM      5  C   UNL     1      90.876  95.200 -44.264  0.00  0.00    +0.000 A 
ATOM      6  C   UNL     1      91.278  93.862 -44.208  0.00  0.00    +0.000 A 
ATOM      7  N   UNL     1      90.399  95.488 -45.497  0.00  0.00    +0.000 N 
ATOM      8  C   UNL     1      91.029  93.321 -45.469  0.00  0.00    +0.000 A 
ATOM      9  C   UNL     1      90.475  94.355 -46.246  0.00  0.00    +0.000 A 
ATOM     10  C   UNL     1      91.233  92.033 -46.009  0.00  0.00    +0.000 A 
ATOM     11  C   UNL     1      90.115  94.113 -47.585  0.00  0.00    +0.000 A 
ATOM     12  C   UNL     1      90.321  92.824 -48.134  0.00  0.00    +0.000 A 
ATOM     13  C   UNL     1      90.869  91.773 -47.349  0.00  0.00    +0.000 A 
ATOM     14 BR   UNL     1      91.669  96.681 -40.488  0.00  0.00    +0.000 Br
ENDROOT
BRANCH   7  15
ATOM     15  C   UNL     1      89.893  96.774 -45.905  0.00  0.00    +0.000 C 
ATOM     16  C   UNL     1      88.358  96.847 -45.754  0.00  0.00    +0.000 C 
ENDBRANCH   7  15
BRANCH  13  17
ATOM     17  C   UNL     1      91.091  90.420 -47.924  0.00  0.00    +0.000 C 
BRANCH  17  18
ATOM     18  N   UNL     1      89.826  89.746 -48.273  0.00  0.00    +0.000 N 
ATOM     19  C   UNL     1      89.969  88.745 -49.352  0.00  0.00    +0.000 C 
ATOM     20  H   UNL     1      89.163  90.445 -48.572  0.00  0.00    +0.000 HD
ATOM     21  H   UNL     1      89.475  89.280 -47.451  0.00  0.00    +0.000 HD
ENDBRANCH  17  18
ENDBRANCH  13  17
TORSDOF 3
ENDMDL
MODEL 4
REMARK VINA RESULT:    -5.491      3.143      5.951
REMARK INTER + INTRA:          -6.799
REMARK INTER:                  -6.454
REMARK INTRA:                  -0.345
REMARK UNBOUND:                -0.345
REMARK  Name = 6gga_ligand
REMARK  5 active torsions:
REMARK  status: ('A' for Active; 'I' for Inactive)
REMARK    1  A    between atoms: N_7  and  C_14
REMARK    2  A    between atoms: C_13  and  C_16
REMARK    3  A    between atoms: C_14  and  C_15
REMARK    4  A    between atoms: C_16  and  N_17
REMARK    5  A    between atoms: N_17  and  C_18
REMARK                            x       y       z     vdW  Elec       q    Type
REMARK                         _______ _______ _______ _____ _____    ______ ____
ROOT
ATOM      1  C   UNL     1      90.060  98.220 -45.474  0.00  0.00    +0.000 A 
ATOM      2  C   UNL     1      89.783  99.355 -46.279  0.00  0.00    +0.000 A 
ATOM      3  C   UNL     1      89.983 100.669 -45.787  0.00  0.00    +0.000 A 
ATOM      4  C   UNL     1      90.465 100.855 -44.483  0.00  0.00    +0.000 A 
ATOM      5  C   UNL     1      90.746  99.733 -43.687  0.00  0.00    +0.000 A 
ATOM      6  C   UNL     1      90.552  98.435 -44.167  0.00  0.00    +0.000 A 
ATOM      7  N   UNL     1      91.209  99.691 -42.416  0.00  0.00    +0.000 N 
ATOM      8  C   UNL     1      90.918  97.571 -43.135  0.00  0.00    +0.000 A 
ATOM      9  C   UNL     1      91.329  98.383 -42.063  0.00  0.00    +0.000 A 
ATOM     10  C   UNL     1      90.929  96.165 -43.031  0.00  0.00    +0.000 A 
ATOM     11  C   UNL     1      91.761  97.792 -40.859  0.00  0.00    +0.000 A 
ATOM     12  C   UNL     1      91.771  96.381 -40.747  0.00  0.00    +0.000 A 
ATOM     13  C   UNL     1      91.367  95.557 -41.833  0.00  0.00    +0.000 A 
ATOM     14 BR   UNL     1      89.625 102.180 -46.823  0.00  0.00    +0.000 Br
ENDROOT
BRANCH   7  15
ATOM     15  C   UNL     1      91.525 100.846 -41.616  0.00  0.00    +0.000 C 
ATOM     16  C   UNL     1      90.285 101.351 -40.845  0.00  0.00    +0.000 C 
ENDBRANCH   7  15
BRANCH  13  17
ATOM     17  C   UNL     1      91.372  94.075 -41.716  0.00  0.00    +0.000 C 
BRANCH  17  18
ATOM     18  N   UNL     1      92.445  93.586 -40.829  0.00  0.00    +0.000 N 
ATOM     19  C   UNL     1      93.505  92.841 -41.541  0.00  0.00    +0.000 C 
ATOM     20  H   UNL     1      92.035  92.978 -40.138  0.00  0.00    +0.000 HD
ATOM     21  H   UNL     1      92.866  94.379 -40.371  0.00  0.00    +0.000 HD
ENDBRANCH  17  18
ENDBRANCH  13  17
TORSDOF 3
ENDMDL
MODEL 5
REMARK VINA RESULT:    -5.411      1.862      3.621
REMARK INTER + INTRA:          -6.705
REMARK INTER:                  -6.391
REMARK INTRA:                  -0.314
REMARK UNBOUND:                -0.345
REMARK  Name = 6gga_ligand
REMARK  5 active torsions:
REMARK  status: ('A' for Active; 'I' for Inactive)
REMARK    1  A    between atoms: N_7  and  C_14
REMARK    2  A    between atoms: C_13  and  C_16
REMARK    3  A    between atoms: C_14  and  C_15
REMARK    4  A    between atoms: C_16  and  N_17
REMARK    5  A    between atoms: N_17  and  C_18
REMARK                            x       y       z     vdW  Elec       q    Type
REMARK                         _______ _______ _______ _____ _____    ______ ____
ROOT
ATOM      1  C   UNL     1      91.594  93.981 -44.337  0.00  0.00    +0.000 A 
ATOM      2  C   UNL     1      91.575  92.833 -45.170  0.00  0.00    +0.000 A 
ATOM      3  C   UNL     1      90.903  92.845 -46.418  0.00  0.00    +0.000 A 
ATOM      4  C   UNL     1      90.246  94.010 -46.841  0.00  0.00    +0.000 A 
ATOM      5  C   UNL     1      90.270  95.150 -46.021  0.00  0.00    +0.000 A 
ATOM      6  C   UNL     1      90.933  95.144 -44.790  0.00  0.00    +0.000 A 
ATOM      7  N   UNL     1      89.705  96.360 -46.236  0.00  0.00    +0.000 N 
ATOM      8  C   UNL     1      90.757  96.413 -44.240  0.00  0.00    +0.000 A 
ATOM      9  C   UNL     1      89.996  97.148 -45.166  0.00  0.00    +0.000 A 
ATOM     10  C   UNL     1      91.185  96.992 -43.027  0.00  0.00    +0.000 A 
ATOM     11  C   UNL     1      89.649  98.485 -44.889  0.00  0.00    +0.000 A 
ATOM     12  C   UNL     1      90.073  99.070 -43.671  0.00  0.00    +0.000 A 
ATOM     13  C   UNL     1      90.852  98.334 -42.738  0.00  0.00    +0.000 A 
ATOM     14 BR   UNL     1      90.859  91.349 -47.534  0.00  0.00    +0.000 Br
ENDROOT
BRANCH   7  15
ATOM     15  C   UNL     1      88.949  96.719 -47.408  0.00  0.00    +0.000 C 
ATOM     16  C   UNL     1      87.430  96.663 -47.137  0.00  0.00    +0.000 C 
ENDBRANCH   7  15
BRANCH  13  17
ATOM     17  C   UNL     1      91.294  98.944 -41.456  0.00  0.00    +0.000 C 
BRANCH  17  18
ATOM     18  N   UNL     1      91.931 100.261 -41.653  0.00  0.00    +0.000 N 
ATOM     19  C   UNL     1      92.125 101.016 -40.397  0.00  0.00    +0.000 C 
ATOM     20  H   UNL     1      91.349 100.809 -42.268  0.00  0.00    +0.000 HD
ATOM     21  H   UNL     1      92.831 100.119 -42.082  0.00  0.00    +0.000 HD
ENDBRANCH  17  18
ENDBRANCH  13  17
TORSDOF 3
ENDMDL
