6gga_ligand
     RDKit          3D

 37 39  0  0  0  0  0  0  0  0999 V2000
   91.0304   94.9264  -46.4270 C   0  0  0  0  0  0  0  0  0  0  0  0
   90.5329   93.7631  -47.0689 C   0  0  0  0  0  0  0  0  0  0  0  0
   90.0025   92.6830  -46.3201 C   0  0  0  0  0  0  0  0  0  0  0  0
   89.9633   92.7628  -44.9201 C   0  0  0  0  0  0  0  0  0  0  0  0
   90.4475   93.9169  -44.2830 C   0  0  0  0  0  0  0  0  0  0  0  0
   90.9722   94.9851  -45.0175 C   0  0  0  0  0  0  0  0  0  0  0  0
   90.5060   94.1934  -42.9601 N   0  0  0  0  0  0  0  0  0  0  0  0
   91.3619   95.9504  -44.0886 C   0  0  0  0  0  0  0  0  0  0  0  0
   91.0524   95.4313  -42.8193 C   0  0  0  0  0  0  0  0  0  0  0  0
   91.9553   97.2217  -44.2309 C   0  0  0  0  0  0  0  0  0  0  0  0
   91.3343   96.1844  -41.6634 C   0  0  0  0  0  0  0  0  0  0  0  0
   91.9327   97.4600  -41.7988 C   0  0  0  0  0  0  0  0  0  0  0  0
   92.2366   97.9934  -43.0807 C   0  0  0  0  0  0  0  0  0  0  0  0
   90.0458   93.3152  -41.9154 C   0  0  0  0  0  0  0  0  0  0  0  0
   91.1927   92.4306  -41.3781 C   0  0  0  0  0  0  0  0  0  0  0  0
   92.8699   99.3298  -43.2273 C   0  0  0  0  0  0  0  0  0  0  0  0
   92.0062  100.2830  -43.9508 N   0  0  0  0  0  4  0  0  0  0  0  0
   90.5901   99.8632  -44.0175 C   0  0  0  0  0  0  0  0  0  0  0  0
   89.3434   91.1386  -47.1374 Br  0  0  0  0  0  0  0  0  0  0  0  0
   91.4434   95.7470  -47.0025 H   0  0  0  0  0  0  0  0  0  0  0  0
   90.5588   93.6992  -48.1507 H   0  0  0  0  0  0  0  0  0  0  0  0
   89.5632   91.9419  -44.3359 H   0  0  0  0  0  0  0  0  0  0  0  0
   92.1943   97.6048  -45.2164 H   0  0  0  0  0  0  0  0  0  0  0  0
   91.0959   95.7919  -40.6815 H   0  0  0  0  0  0  0  0  0  0  0  0
   92.1626   98.0387  -40.9115 H   0  0  0  0  0  0  0  0  0  0  0  0
   89.2518   92.6678  -42.3158 H   0  0  0  0  0  0  0  0  0  0  0  0
   89.6439   93.9207  -41.0898 H   0  0  0  0  0  0  0  0  0  0  0  0
   90.7962   91.7335  -40.6252 H   0  0  0  0  0  0  0  0  0  0  0  0
   91.9627   93.0677  -40.9185 H   0  0  0  0  0  0  0  0  0  0  0  0
   91.6358   91.8606  -42.2080 H   0  0  0  0  0  0  0  0  0  0  0  0
   93.8128   99.2155  -43.7822 H   0  0  0  0  0  0  0  0  0  0  0  0
   93.0805   99.7332  -42.2259 H   0  0  0  0  0  0  0  0  0  0  0  0
   92.3551  100.3789  -44.8916 H   0  0  0  0  0  0  0  0  0  0  0  0
   92.0529  101.1744  -43.4826 H   0  0  0  0  0  0  0  0  0  0  0  0
   90.5045   98.8113  -43.7074 H   0  0  0  0  0  0  0  0  0  0  0  0
   90.2235   99.9724  -45.0489 H   0  0  0  0  0  0  0  0  0  0  0  0
   89.9887  100.4935  -43.3459 H   0  0  0  0  0  0  0  0  0  0  0  0
  1  2  2  0
  1  6  1  0
  2  3  1  0
  3  4  2  0
  3 19  1  0
  4  5  1  0
  5  6  2  0
  5  7  1  0
  6  8  1  0
  7  9  1  0
  7 14  1  0
  8  9  2  0
  8 10  1  0
  9 11  1  0
 10 13  2  0
 11 12  2  0
 12 13  1  0
 13 16  1  0
 14 15  1  0
 16 17  1  0
 17 18  1  0
  1 20  1  0
  2 21  1  0
  4 22  1  0
 10 23  1  0
 11 24  1  0
 12 25  1  0
 14 26  1  0
 14 27  1  0
 15 28  1  0
 15 29  1  0
 15 30  1  0
 16 31  1  0
 16 32  1  0
 17 33  1  0
 17 34  1  0
 18 35  1  0
 18 36  1  0
 18 37  1  0
M  CHG  1  17   1
M  END
