REMARK  Name = 6e3n_ligand
REMARK  5 active torsions:
REMARK  status: ('A' for Active; 'I' for Inactive)
REMARK    1  A    between atoms: C_2  and  OXT_3
REMARK    2  A    between atoms: C_2  and  CA_4
REMARK    3  A    between atoms: C_6  and  O_7
REMARK    4  A    between atoms: C_11  and  C_12
REMARK    5  A    between atoms: C_17  and  C_18
REMARK                            x       y       z     vdW  Elec       q    Type
REMARK                         _______ _______ _______ _____ _____    ______ ____
ROOT
ATOM      1  CA  UNL     1     -19.055  17.763 132.103  0.00  0.00    +0.000 C 
ATOM      2  N   UNL     1     -19.585  17.919 133.399  0.00  0.00    +0.000 NA
ATOM      3  C   UNL     1     -19.954  17.475 131.042  0.00  0.00    +0.000 C 
ATOM      4  C   UNL     1     -21.351  17.347 131.265  0.00  0.00    +0.000 C 
ATOM      5  O   UNL     1     -22.175  17.098 130.373  0.00  0.00    +0.000 OA
ATOM      6  C   UNL     1     -21.833  17.507 132.561  0.00  0.00    +0.000 C 
ATOM      7  C   UNL     1     -20.966  17.784 133.627  0.00  0.00    +0.000 C 
ENDROOT
BRANCH   7   8
ATOM      8  C   UNL     1     -21.481  17.928 134.917  0.00  0.00    +0.000 A 
ATOM      9  C   UNL     1     -21.316  19.139 135.596  0.00  0.00    +0.000 A 
ATOM     10  C   UNL     1     -21.835  19.326 136.884  0.00  0.00    +0.000 A 
ATOM     11  C   UNL     1     -22.511  18.284 137.504  0.00  0.00    +0.000 A 
ATOM     12  C   UNL     1     -22.664  17.076 136.824  0.00  0.00    +0.000 A 
ATOM     13  C   UNL     1     -22.166  16.886 135.538  0.00  0.00    +0.000 A 
ATOM     14  C   UNL     1     -22.382  15.643 134.938  0.00  0.00    +0.000 C 
ENDBRANCH   7   8
BRANCH   1  16
ATOM     15  O   UNL     1     -17.159  17.863 130.808  0.00  0.00    +0.000 OA
ATOM     16  C   UNL     1     -17.663  17.906 131.948  0.00  0.00    +0.000 C 
BRANCH  16  17
ATOM     17  OXT UNL     1     -16.895  18.076 132.938  0.00  0.00    +0.000 OA
ATOM     18  HXT UNL     1     -17.411  18.069 133.747  0.00  0.00    +0.000 HD
ENDBRANCH  16  17
ENDBRANCH   1  16
BRANCH   3  19
ATOM     19  O   UNL     1     -19.471  17.309 129.766  0.00  0.00    +0.000 OA
ATOM     20  H   UNL     1     -18.555  17.596 129.732  0.00  0.00    +0.000 HD
ENDBRANCH   3  19
TORSDOF 4
