6hld_ligand
     RDKit          3D

162164  0  0  0  0  0  0  0  0999 V2000
   53.9905  -33.2255   -4.2831 N   0  0  0  0  0  0  0  0  0  0  0  0
   53.7767  -34.6327   -3.8874 C   0  0  0  0  0  0  0  0  0  0  0  0
   52.2827  -35.0398   -3.9725 C   0  0  0  0  0  0  0  0  0  0  0  0
   51.9383  -36.1847   -3.6769 O   0  0  0  0  0  0  0  0  0  0  0  0
   54.2941  -34.8964   -2.4648 C   0  0  0  0  0  0  0  0  0  0  0  0
   55.5990  -34.4257   -2.3222 C   0  0  0  0  0  0  0  0  0  0  0  0
   56.6045  -35.2558   -1.8351 C   0  0  0  0  0  0  0  0  0  0  0  0
   57.9008  -34.7760   -1.6952 C   0  0  0  0  0  0  0  0  0  0  0  0
   55.8951  -33.1113   -2.6657 C   0  0  0  0  0  0  0  0  0  0  0  0
   57.1923  -32.6309   -2.5257 C   0  0  0  0  0  0  0  0  0  0  0  0
   58.1944  -33.4629   -2.0404 C   0  0  0  0  0  0  0  0  0  0  0  0
   54.8939  -32.2771   -3.1505 C   0  0  0  0  0  0  0  0  0  0  0  0
   55.1883  -30.9636   -3.4956 C   0  0  0  0  0  0  0  0  0  0  0  0
   56.4859  -30.4839   -3.3550 C   0  0  0  0  0  0  0  0  0  0  0  0
   57.4867  -31.3174   -2.8708 C   0  0  0  0  0  0  0  0  0  0  0  0
   51.4155  -34.0871   -4.3750 N   0  0  0  0  0  0  0  0  0  0  0  0
   50.2396  -33.7080   -3.5621 C   0  0  0  0  0  0  0  0  0  0  0  0
   48.9246  -34.2364   -4.1689 C   0  0  0  0  0  0  0  0  0  0  0  0
   47.9593  -33.4962   -4.3601 O   0  0  0  0  0  0  0  0  0  0  0  0
   50.1743  -32.1800   -3.4203 C   0  0  0  0  0  0  0  0  0  0  0  0
   49.5341  -31.8465   -2.0674 C   0  0  0  0  0  0  0  0  0  0  0  0
   49.9028  -32.8918   -1.0057 C   0  0  0  0  0  0  0  0  0  0  0  0
   51.3149  -33.3372   -1.1026 N   0  0  0  0  0  0  0  0  0  0  0  0
   52.4217  -32.5666   -1.2808 C   0  0  0  0  0  0  0  0  0  0  0  0
   53.5346  -33.1245   -1.7794 N   0  0  0  0  0  0  0  0  0  0  0  0
   52.4409  -31.2545   -0.9763 N   0  0  0  0  0  0  0  0  0  0  0  0
   48.9139  -35.5530   -4.4442 N   0  0  0  0  0  0  0  0  0  0  0  0
   48.4182  -36.0830   -5.7312 C   0  0  0  0  0  0  0  0  0  0  0  0
   49.4444  -35.8018   -6.8626 C   0  0  0  0  0  0  0  0  0  0  0  0
   49.0971  -35.8627   -8.0444 O   0  0  0  0  0  0  0  0  0  0  0  0
   47.0381  -35.4637   -6.0359 C   0  0  0  0  0  0  0  0  0  0  0  0
   47.1596  -33.9785   -6.4829 C   0  0  0  0  0  0  0  0  0  0  0  0
   48.1193  -33.2445   -5.5342 C   0  0  0  0  0  0  0  0  0  0  0  0
   49.5377  -33.5762   -5.7746 N   0  0  0  0  0  0  0  0  0  0  0  0
   50.5545  -32.7030   -5.6093 C   0  0  0  0  0  0  0  0  0  0  0  0
   51.1514  -32.1712   -6.6988 N   0  0  0  0  0  0  0  0  0  0  0  0
   50.9582  -32.3533   -4.3572 N   0  0  0  0  0  0  0  0  0  0  0  0
   50.7015  -35.4716   -6.4805 N   0  0  0  0  0  0  0  0  0  0  0  0
   51.4132  -34.2887   -7.0183 C   0  0  0  0  0  0  0  0  0  0  0  0
   51.1296  -33.0567   -6.1157 C   0  0  0  0  0  0  0  0  0  0  0  0
   52.0540  -32.4136   -5.6189 O   0  0  0  0  0  0  0  0  0  0  0  0
   50.9981  -34.0546   -8.4899 C   0  0  0  0  0  0  0  0  0  0  0  0
   50.4896  -35.3706   -9.1392 C   0  0  0  0  0  0  0  0  0  0  0  0
   49.5404  -36.0908   -8.1670 C   0  0  0  0  0  0  0  0  0  0  0  0
   48.1195  -35.7562   -8.4028 N   0  0  0  0  0  0  0  0  0  0  0  0
   47.6913  -34.5095   -8.7211 C   0  0  0  0  0  0  0  0  0  0  0  0
   47.7265  -33.5082   -7.8151 N   0  0  0  0  0  0  0  0  0  0  0  0
   47.2369  -34.2550   -9.9570 N   0  0  0  0  0  0  0  0  0  0  0  0
   49.3028  -34.1700   -7.9136 C   0  0  0  0  0  0  0  0  0  0  0  0
   49.8359  -32.7263   -5.9532 N   0  0  0  0  0  0  0  0  0  0  0  0
   50.3871  -34.7533   -7.8095 O   0  0  0  0  0  0  0  0  0  0  0  0
   48.7428  -33.3449   -6.7406 C   0  0  0  0  0  0  0  0  0  0  0  0
   47.9074  -32.1963   -7.3373 C   0  0  0  0  0  0  0  0  0  0  0  0
   47.0883  -30.8403   -5.3671 C   0  0  0  0  0  0  0  0  0  0  0  0
   46.9355  -32.2378   -4.7383 C   0  0  0  0  0  0  0  0  0  0  0  0
   48.0757  -30.8770   -6.5538 C   0  0  0  0  0  0  0  0  0  0  0  0
   46.0537  -32.2073   -3.5538 N   0  0  0  0  0  0  0  0  0  0  0  0
   48.5403  -34.1816   -9.0329 N   0  0  0  0  0  0  0  0  0  0  0  0
   47.6620  -35.2998   -9.4126 C   0  0  0  0  0  0  0  0  0  0  0  0
   48.5923  -36.3671   -9.9957 C   0  0  0  0  0  0  0  0  0  0  0  0
   49.3653  -36.0600  -10.8940 O   0  0  0  0  0  0  0  0  0  0  0  0
   46.6615  -34.8593  -10.5089 C   0  0  0  0  0  0  0  0  0  0  0  0
   46.2807  -36.0285  -11.4165 C   0  0  0  0  0  0  0  0  0  0  0  0
   45.1937  -35.6058  -12.4477 C   0  0  0  0  0  0  0  0  0  0  0  0
   45.8156  -35.6456  -13.8532 C   0  0  0  0  0  0  0  0  0  0  0  0
   45.4080  -34.5098  -14.7026 N   0  0  0  0  0  0  0  0  0  0  0  0
   48.5417  -37.5978   -9.4517 N   0  0  0  0  0  0  0  0  0  0  0  0
   47.9115  -38.7363  -10.1524 C   0  0  0  0  0  0  0  0  0  0  0  0
   48.9670  -39.5145  -10.7639 C   0  0  0  0  0  0  0  0  0  0  0  0
   49.7009  -40.4352  -10.0293 C   0  0  0  0  0  0  0  0  0  0  0  0
   50.7463  -41.1908  -10.5920 C   0  0  0  0  0  0  0  0  0  0  0  0
   51.0890  -41.0578  -11.9406 C   0  0  0  0  0  0  0  0  0  0  0  0
   52.1304  -41.8195  -12.5223 C   0  0  0  0  0  0  0  0  0  0  0  0
   51.8808  -42.5467  -13.6249 N   0  0  0  0  0  0  0  0  0  0  0  0
   53.3572  -41.7679  -11.9853 N   0  0  0  0  0  0  0  0  0  0  0  0
   50.3520  -40.1367  -12.6885 C   0  0  0  0  0  0  0  0  0  0  0  0
   49.3115  -39.3727  -12.1113 C   0  0  0  0  0  0  0  0  0  0  0  0
   53.9424  -33.1481   -5.2990 H   0  0  0  0  0  0  0  0  0  0  0  0
   53.2681  -32.6415   -3.8618 H   0  0  0  0  0  0  0  0  0  0  0  0
   54.9083  -32.9186   -3.9607 H   0  0  0  0  0  0  0  0  0  0  0  0
   54.3415  -35.2404   -4.5944 H   0  0  0  0  0  0  0  0  0  0  0  0
   54.2836  -35.9703   -2.2785 H   0  0  0  0  0  0  0  0  0  0  0  0
   53.6516  -34.3774   -1.7535 H   0  0  0  0  0  0  0  0  0  0  0  0
   56.3741  -36.2857   -1.5625 H   0  0  0  0  0  0  0  0  0  0  0  0
   58.6864  -35.4290   -1.3151 H   0  0  0  0  0  0  0  0  0  0  0  0
   59.2108  -33.0849   -1.9308 H   0  0  0  0  0  0  0  0  0  0  0  0
   53.8770  -32.6539   -3.2601 H   0  0  0  0  0  0  0  0  0  0  0  0
   54.4032  -30.3102   -3.8761 H   0  0  0  0  0  0  0  0  0  0  0  0
   56.7180  -29.4536   -3.6248 H   0  0  0  0  0  0  0  0  0  0  0  0
   58.5036  -30.9406   -2.7616 H   0  0  0  0  0  0  0  0  0  0  0  0
   51.5758  -33.6152   -5.2649 H   0  0  0  0  0  0  0  0  0  0  0  0
   50.3555  -34.1651   -2.5794 H   0  0  0  0  0  0  0  0  0  0  0  0
   49.5796  -31.7555   -4.2291 H   0  0  0  0  0  0  0  0  0  0  0  0
   51.1776  -31.7574   -3.4725 H   0  0  0  0  0  0  0  0  0  0  0  0
   48.4507  -31.8398   -2.1874 H   0  0  0  0  0  0  0  0  0  0  0  0
   49.9005  -30.8736   -1.7396 H   0  0  0  0  0  0  0  0  0  0  0  0
   49.2667  -33.7633   -1.1605 H   0  0  0  0  0  0  0  0  0  0  0  0
   49.7634  -32.4355   -0.0256 H   0  0  0  0  0  0  0  0  0  0  0  0
   51.4749  -34.3417   -1.0265 H   0  0  0  0  0  0  0  0  0  0  0  0
   53.5444  -34.1156   -2.0203 H   0  0  0  0  0  0  0  0  0  0  0  0
   53.2033  -30.8719   -0.4170 H   0  0  0  0  0  0  0  0  0  0  0  0
   51.6931  -30.6437   -1.3051 H   0  0  0  0  0  0  0  0  0  0  0  0
   49.2594  -36.2068   -3.7416 H   0  0  0  0  0  0  0  0  0  0  0  0
   48.3011  -37.1649   -5.6680 H   0  0  0  0  0  0  0  0  0  0  0  0
   46.4369  -35.5007   -5.1275 H   0  0  0  0  0  0  0  0  0  0  0  0
   46.5791  -36.0297   -6.8466 H   0  0  0  0  0  0  0  0  0  0  0  0
   46.1785  -33.5046   -6.4506 H   0  0  0  0  0  0  0  0  0  0  0  0
   47.5449  -33.9327   -7.5016 H   0  0  0  0  0  0  0  0  0  0  0  0
   47.8759  -33.5488   -4.5163 H   0  0  0  0  0  0  0  0  0  0  0  0
   47.9964  -32.1745   -5.7017 H   0  0  0  0  0  0  0  0  0  0  0  0
   49.7631  -34.5216   -6.0840 H   0  0  0  0  0  0  0  0  0  0  0  0
   50.8328  -32.4305   -7.6325 H   0  0  0  0  0  0  0  0  0  0  0  0
   50.2869  -31.9650   -3.6946 H   0  0  0  0  0  0  0  0  0  0  0  0
   51.9321  -32.4795   -4.0815 H   0  0  0  0  0  0  0  0  0  0  0  0
   51.1764  -36.0601   -5.7960 H   0  0  0  0  0  0  0  0  0  0  0  0
   52.4900  -34.4575   -7.0098 H   0  0  0  0  0  0  0  0  0  0  0  0
   51.8661  -33.7019   -9.0467 H   0  0  0  0  0  0  0  0  0  0  0  0
   50.1943  -33.3188   -8.5142 H   0  0  0  0  0  0  0  0  0  0  0  0
   51.3388  -36.0166   -9.3623 H   0  0  0  0  0  0  0  0  0  0  0  0
   49.9564  -35.1378  -10.0609 H   0  0  0  0  0  0  0  0  0  0  0  0
   49.7949  -35.7748   -7.1553 H   0  0  0  0  0  0  0  0  0  0  0  0
   49.6604  -37.1639   -8.3157 H   0  0  0  0  0  0  0  0  0  0  0  0
   47.4268  -36.5005   -8.3220 H   0  0  0  0  0  0  0  0  0  0  0  0
   47.1775  -32.6623   -7.9682 H   0  0  0  0  0  0  0  0  0  0  0  0
   48.3020  -33.5980   -6.9778 H   0  0  0  0  0  0  0  0  0  0  0  0
   47.2140  -34.9983  -10.6551 H   0  0  0  0  0  0  0  0  0  0  0  0
   49.5966  -32.0194   -5.2579 H   0  0  0  0  0  0  0  0  0  0  0  0
   48.1587  -34.0002   -6.0944 H   0  0  0  0  0  0  0  0  0  0  0  0
   46.8571  -32.4842   -7.2912 H   0  0  0  0  0  0  0  0  0  0  0  0
   48.2477  -32.0274   -8.3590 H   0  0  0  0  0  0  0  0  0  0  0  0
   47.4727  -30.1552   -4.6115 H   0  0  0  0  0  0  0  0  0  0  0  0
   46.1150  -30.5103   -5.7303 H   0  0  0  0  0  0  0  0  0  0  0  0
   47.9205  -32.5844   -4.4256 H   0  0  0  0  0  0  0  0  0  0  0  0
   46.4931  -32.9028   -5.4800 H   0  0  0  0  0  0  0  0  0  0  0  0
   47.8717  -30.0365   -7.2171 H   0  0  0  0  0  0  0  0  0  0  0  0
   49.0956  -30.8118   -6.1747 H   0  0  0  0  0  0  0  0  0  0  0  0
   45.2750  -31.5717   -3.7273 H   0  0  0  0  0  0  0  0  0  0  0  0
   45.6951  -33.1451   -3.3741 H   0  0  0  0  0  0  0  0  0  0  0  0
   46.5841  -31.8841   -2.7448 H   0  0  0  0  0  0  0  0  0  0  0  0
   48.5768  -33.3688   -9.6481 H   0  0  0  0  0  0  0  0  0  0  0  0
   47.0878  -35.6570   -8.5577 H   0  0  0  0  0  0  0  0  0  0  0  0
   47.1319  -34.0869  -11.1174 H   0  0  0  0  0  0  0  0  0  0  0  0
   45.7583  -34.4875  -10.0250 H   0  0  0  0  0  0  0  0  0  0  0  0
   45.8821  -36.8338  -10.7996 H   0  0  0  0  0  0  0  0  0  0  0  0
   47.1688  -36.3530  -11.9589 H   0  0  0  0  0  0  0  0  0  0  0  0
   44.8401  -34.5991  -12.2249 H   0  0  0  0  0  0  0  0  0  0  0  0
   44.3455  -36.2883  -12.3960 H   0  0  0  0  0  0  0  0  0  0  0  0
   45.4749  -36.5599  -14.3391 H   0  0  0  0  0  0  0  0  0  0  0  0
   46.8983  -35.5984  -13.7364 H   0  0  0  0  0  0  0  0  0  0  0  0
   46.2154  -34.1711  -15.2257 H   0  0  0  0  0  0  0  0  0  0  0  0
   44.6841  -34.8156  -15.3527 H   0  0  0  0  0  0  0  0  0  0  0  0
   45.0437  -33.7604  -14.1143 H   0  0  0  0  0  0  0  0  0  0  0  0
   48.9502  -37.7488   -8.5293 H   0  0  0  0  0  0  0  0  0  0  0  0
   47.2164  -38.3771  -10.9113 H   0  0  0  0  0  0  0  0  0  0  0  0
   47.3466  -39.3488   -9.4497 H   0  0  0  0  0  0  0  0  0  0  0  0
   49.4582  -40.5787   -8.9764 H   0  0  0  0  0  0  0  0  0  0  0  0
   51.2982  -41.8916   -9.9656 H   0  0  0  0  0  0  0  0  0  0  0  0
   51.5170  -43.4956  -13.5384 H   0  0  0  0  0  0  0  0  0  0  0  0
   52.0552  -42.1495  -14.5480 H   0  0  0  0  0  0  0  0  0  0  0  0
   53.5314  -41.1845  -11.1670 H   0  0  0  0  0  0  0  0  0  0  0  0
   50.5849  -40.0034  -13.7450 H   0  0  0  0  0  0  0  0  0  0  0  0
   48.7671  -38.6588  -12.7294 H   0  0  0  0  0  0  0  0  0  0  0  0
  2  1  1  0
  3  2  1  0
  2  5  1  0
  3  4  2  0
 16  3  1  0
  5  6  1  0
  6  7  2  0
  6  9  1  0
  7  8  1  0
  8 11  2  0
  9 10  2  0
  9 12  1  0
 10 11  1  0
 10 15  1  0
 12 13  2  0
 13 14  1  0
 15 14  2  0
 17 16  1  0
 18 17  1  0
 17 20  1  0
 18 19  2  0
 27 18  1  0
 20 21  1  0
 21 22  1  0
 22 23  1  0
 23 24  1  0
 24 25  2  0
 24 26  1  0
 28 27  1  0
 29 28  1  0
 28 31  1  0
 29 30  2  0
 38 29  1  0
 31 32  1  0
 32 33  1  0
 33 34  1  0
 34 35  1  0
 35 36  2  0
 35 37  1  0
 39 38  1  0
 40 39  1  0
 39 42  1  0
 40 41  2  0
 50 40  1  0
 42 43  1  0
 43 44  1  0
 44 45  1  0
 45 46  1  0
 46 47  1  0
 46 48  2  0
 49 51  2  0
 52 49  1  0
 49 58  1  0
 52 50  1  0
 53 52  1  0
 56 53  1  0
 54 55  1  0
 54 56  1  0
 55 57  1  0
 58 59  1  0
 59 60  1  0
 59 62  1  0
 60 61  2  0
 60 67  1  0
 62 63  1  0
 63 64  1  0
 64 65  1  0
 65 66  1  0
 67 68  1  0
 68 69  1  0
 69 70  2  0
 69 77  1  0
 70 71  1  0
 71 72  2  0
 72 73  1  0
 72 76  1  0
 73 74  1  0
 73 75  2  0
 76 77  2  0
  1 78  1  0
  1 79  1  0
  1 80  1  0
  2 81  1  0
  5 82  1  0
  5 83  1  0
  7 84  1  0
  8 85  1  0
 11 86  1  0
 12 87  1  0
 13 88  1  0
 14 89  1  0
 15 90  1  0
 16 91  1  0
 17 92  1  0
 20 93  1  0
 20 94  1  0
 21 95  1  0
 21 96  1  0
 22 97  1  0
 22 98  1  0
 23 99  1  0
 25100  1  0
 26101  1  0
 26102  1  0
 27103  1  0
 28104  1  0
 31105  1  0
 31106  1  0
 32107  1  0
 32108  1  0
 33109  1  0
 33110  1  0
 34111  1  0
 36112  1  0
 37113  1  0
 37114  1  0
 38115  1  0
 39116  1  0
 42117  1  0
 42118  1  0
 43119  1  0
 43120  1  0
 44121  1  0
 44122  1  0
 45123  1  0
 47124  1  0
 47125  1  0
 48126  1  0
 50127  1  0
 52128  1  0
 53129  1  0
 53130  1  0
 54131  1  0
 54132  1  0
 55133  1  0
 55134  1  0
 56135  1  0
 56136  1  0
 57137  1  0
 57138  1  0
 57139  1  0
 58140  1  0
 59141  1  0
 62142  1  0
 62143  1  0
 63144  1  0
 63145  1  0
 64146  1  0
 64147  1  0
 65148  1  0
 65149  1  0
 66150  1  0
 66151  1  0
 66152  1  0
 67153  1  0
 68154  1  0
 68155  1  0
 70156  1  0
 71157  1  0
 74158  1  0
 74159  1  0
 75160  1  0
 76161  1  0
 77162  1  0
M  CHG  3   1   1  57   1  66   1
M  END
