REMARK  Name = 6hd6_ligand
REMARK  6 active torsions:
REMARK  status: ('A' for Active; 'I' for Inactive)
REMARK    1  A    between atoms: C_1  and  O_18
REMARK    2  A    between atoms: C_4  and  N_22
REMARK    3  A    between atoms: C_7  and  C_8
REMARK    4  A    between atoms: C_10  and  C_14
REMARK    5  A    between atoms: C_14  and  N_24
REMARK    6  A    between atoms: O_18  and  C_19
REMARK                            x       y       z     vdW  Elec       q    Type
REMARK                         _______ _______ _______ _____ _____    ______ ____
ROOT
ATOM      1  C   UNL     1      22.734  43.683  56.555  0.00  0.00    +0.000 C 
ATOM      2  N   UNL     1      21.699  42.794  56.449  0.00  0.00    +0.000 N 
ATOM      3  O   UNL     1      23.775  43.590  55.915  0.00  0.00    +0.000 OA
ATOM      4  H   UNL     1      21.594  42.123  57.210  0.00  0.00    +0.000 HD
ENDROOT
BRANCH   2   5
ATOM      5  C   UNL     1      20.752  42.706  55.389  0.00  0.00    +0.000 A 
ATOM      6  C   UNL     1      21.136  42.924  54.051  0.00  0.00    +0.000 A 
ATOM      7  C   UNL     1      20.201  42.886  52.995  0.00  0.00    +0.000 A 
ATOM      8  C   UNL     1      18.840  42.650  53.277  0.00  0.00    +0.000 A 
ATOM      9  C   UNL     1      18.456  42.459  54.610  0.00  0.00    +0.000 A 
ATOM     10  C   UNL     1      19.399  42.497  55.647  0.00  0.00    +0.000 A 
BRANCH   8  11
ATOM     11  O   UNL     1      17.841  42.595  52.292  0.00  0.00    +0.000 OA
BRANCH  11  12
ATOM     12  C   UNL     1      17.798  41.562  51.287  0.00  0.00    +0.000 C 
ATOM     13  F   UNL     1      17.703  40.343  51.868  0.00  0.00    +0.000 F 
ATOM     14  F   UNL     1      18.881  41.548  50.480  0.00  0.00    +0.000 F 
ATOM     15  F   UNL     1      16.730  41.789  50.486  0.00  0.00    +0.000 F 
ENDBRANCH  11  12
ENDBRANCH   8  11
ENDBRANCH   2   5
BRANCH   1  16
ATOM     16  C   UNL     1      22.682  44.862  57.512  0.00  0.00    +0.000 A 
ATOM     17  C   UNL     1      23.163  46.137  57.142  0.00  0.00    +0.000 A 
ATOM     18  C   UNL     1      23.129  47.219  58.051  0.00  0.00    +0.000 A 
ATOM     19  C   UNL     1      22.615  46.992  59.338  0.00  0.00    +0.000 A 
ATOM     20  C   UNL     1      22.145  45.734  59.723  0.00  0.00    +0.000 A 
ATOM     21  C   UNL     1      22.188  44.673  58.812  0.00  0.00    +0.000 A 
BRANCH  18  22
ATOM     22  C   UNL     1      23.651  48.612  57.615  0.00  0.00    +0.000 C 
BRANCH  22  25
ATOM     23  C   UNL     1      24.582  51.629  59.872  0.00  0.00    +0.000 C 
ATOM     24  C   UNL     1      24.815  50.378  58.973  0.00  0.00    +0.000 C 
ATOM     25  N   UNL     1      23.524  49.746  58.580  0.00  0.00    +0.000 N 
ATOM     26  C   UNL     1      22.540  49.592  59.696  0.00  0.00    +0.000 C 
ATOM     27  C   UNL     1      22.375  50.898  60.515  0.00  0.00    +0.000 C 
ATOM     28  O   UNL     1      23.677  51.334  60.964  0.00  0.00    +0.000 OA
ATOM     29  H   UNL     1      23.057  50.444  58.000  0.00  0.00    +0.000 HD
ENDBRANCH  22  25
ENDBRANCH  18  22
ENDBRANCH   1  16
TORSDOF 6
