MODEL 1
REMARK VINA RESULT:    -9.503      0.000      0.000
REMARK INTER + INTRA:         -13.756
REMARK INTER:                 -12.685
REMARK INTRA:                  -1.071
REMARK UNBOUND:                -0.920
REMARK  Name = 6hd6_ligand
REMARK  6 active torsions:
REMARK  status: ('A' for Active; 'I' for Inactive)
REMARK    1  A    between atoms: C_1  and  O_18
REMARK    2  A    between atoms: C_4  and  N_22
REMARK    3  A    between atoms: C_7  and  C_8
REMARK    4  A    between atoms: C_10  and  C_14
REMARK    5  A    between atoms: C_14  and  N_24
REMARK    6  A    between atoms: O_18  and  C_19
REMARK                            x       y       z     vdW  Elec       q    Type
REMARK                         _______ _______ _______ _____ _____    ______ ____
ROOT
ATOM      1  C   UNL     1      19.962  43.388  54.130  0.00  0.00    +0.000 C 
ATOM      2  N   UNL     1      19.718  43.223  52.794  0.00  0.00    +0.000 N 
ATOM      3  O   UNL     1      19.083  43.395  54.984  0.00  0.00    +0.000 OA
ATOM      4  H   UNL     1      19.768  44.061  52.214  0.00  0.00    +0.000 HD
ENDROOT
BRANCH   2   5
ATOM      5  C   UNL     1      19.400  42.006  52.126  0.00  0.00    +0.000 A 
ATOM      6  C   UNL     1      18.137  41.401  52.278  0.00  0.00    +0.000 A 
ATOM      7  C   UNL     1      17.823  40.172  51.660  0.00  0.00    +0.000 A 
ATOM      8  C   UNL     1      18.800  39.510  50.889  0.00  0.00    +0.000 A 
ATOM      9  C   UNL     1      20.064  40.100  50.760  0.00  0.00    +0.000 A 
ATOM     10  C   UNL     1      20.357  41.323  51.378  0.00  0.00    +0.000 A 
BRANCH   8  11
ATOM     11  O   UNL     1      18.578  38.286  50.239  0.00  0.00    +0.000 OA
BRANCH  11  12
ATOM     12  C   UNL     1      17.581  38.123  49.210  0.00  0.00    +0.000 C 
ATOM     13  F   UNL     1      16.351  38.000  49.760  0.00  0.00    +0.000 F 
ATOM     14  F   UNL     1      17.787  37.044  48.423  0.00  0.00    +0.000 F 
ATOM     15  F   UNL     1      17.629  39.203  48.394  0.00  0.00    +0.000 F 
ENDBRANCH  11  12
ENDBRANCH   8  11
ENDBRANCH   2   5
BRANCH   1  16
ATOM     16  C   UNL     1      21.367  43.606  54.666  0.00  0.00    +0.000 A 
ATOM     17  C   UNL     1      22.492  43.610  53.813  0.00  0.00    +0.000 A 
ATOM     18  C   UNL     1      23.795  43.791  54.329  0.00  0.00    +0.000 A 
ATOM     19  C   UNL     1      23.946  43.955  55.716  0.00  0.00    +0.000 A 
ATOM     20  C   UNL     1      22.844  43.943  56.574  0.00  0.00    +0.000 A 
ATOM     21  C   UNL     1      21.561  43.760  56.048  0.00  0.00    +0.000 A 
BRANCH  18  22
ATOM     22  C   UNL     1      25.012  43.804  53.369  0.00  0.00    +0.000 C 
BRANCH  22  25
ATOM     23  C   UNL     1      26.175  46.278  50.613  0.00  0.00    +0.000 C 
ATOM     24  C   UNL     1      25.991  44.909  51.334  0.00  0.00    +0.000 C 
ATOM     25  N   UNL     1      25.339  45.081  52.663  0.00  0.00    +0.000 N 
ATOM     26  C   UNL     1      25.889  46.201  53.488  0.00  0.00    +0.000 C 
ATOM     27  C   UNL     1      26.016  47.516  52.677  0.00  0.00    +0.000 C 
ATOM     28  O   UNL     1      26.790  47.257  51.486  0.00  0.00    +0.000 OA
ATOM     29  H   UNL     1      24.404  45.431  52.452  0.00  0.00    +0.000 HD
ENDBRANCH  22  25
ENDBRANCH  18  22
ENDBRANCH   1  16
TORSDOF 6
ENDMDL
MODEL 2
REMARK VINA RESULT:    -9.501      2.714      4.894
REMARK INTER + INTRA:         -13.753
REMARK INTER:                 -12.695
REMARK INTRA:                  -1.058
REMARK UNBOUND:                -0.920
REMARK  Name = 6hd6_ligand
REMARK  6 active torsions:
REMARK  status: ('A' for Active; 'I' for Inactive)
REMARK    1  A    between atoms: C_1  and  O_18
REMARK    2  A    between atoms: C_4  and  N_22
REMARK    3  A    between atoms: C_7  and  C_8
REMARK    4  A    between atoms: C_10  and  C_14
REMARK    5  A    between atoms: C_14  and  N_24
REMARK    6  A    between atoms: O_18  and  C_19
REMARK                            x       y       z     vdW  Elec       q    Type
REMARK                         _______ _______ _______ _____ _____    ______ ____
ROOT
ATOM      1  C   UNL     1      19.968  43.356  54.025  0.00  0.00    +0.000 C 
ATOM      2  N   UNL     1      19.744  43.183  52.686  0.00  0.00    +0.000 N 
ATOM      3  O   UNL     1      19.073  43.393  54.862  0.00  0.00    +0.000 OA
ATOM      4  H   UNL     1      19.825  44.013  52.098  0.00  0.00    +0.000 HD
ENDROOT
BRANCH   2   5
ATOM      5  C   UNL     1      19.410  41.966  52.025  0.00  0.00    +0.000 A 
ATOM      6  C   UNL     1      18.125  41.401  52.147  0.00  0.00    +0.000 A 
ATOM      7  C   UNL     1      17.793  40.174  51.537  0.00  0.00    +0.000 A 
ATOM      8  C   UNL     1      18.772  39.472  50.803  0.00  0.00    +0.000 A 
ATOM      9  C   UNL     1      20.056  40.023  50.704  0.00  0.00    +0.000 A 
ATOM     10  C   UNL     1      20.367  41.246  51.315  0.00  0.00    +0.000 A 
BRANCH   8  11
ATOM     11  O   UNL     1      18.532  38.246  50.163  0.00  0.00    +0.000 OA
BRANCH  11  12
ATOM     12  C   UNL     1      17.514  38.083  49.155  0.00  0.00    +0.000 C 
ATOM     13  F   UNL     1      16.298  37.939  49.732  0.00  0.00    +0.000 F 
ATOM     14  F   UNL     1      17.716  37.016  48.351  0.00  0.00    +0.000 F 
ATOM     15  F   UNL     1      17.530  39.173  48.351  0.00  0.00    +0.000 F 
ENDBRANCH  11  12
ENDBRANCH   8  11
ENDBRANCH   2   5
BRANCH   1  16
ATOM     16  C   UNL     1      21.367  43.547  54.584  0.00  0.00    +0.000 A 
ATOM     17  C   UNL     1      21.582  43.906  55.933  0.00  0.00    +0.000 A 
ATOM     18  C   UNL     1      22.890  44.102  56.434  0.00  0.00    +0.000 A 
ATOM     19  C   UNL     1      23.972  43.942  55.553  0.00  0.00    +0.000 A 
ATOM     20  C   UNL     1      23.775  43.597  54.213  0.00  0.00    +0.000 A 
ATOM     21  C   UNL     1      22.474  43.409  53.733  0.00  0.00    +0.000 A 
BRANCH  18  22
ATOM     22  C   UNL     1      23.099  44.483  57.922  0.00  0.00    +0.000 C 
BRANCH  22  25
ATOM     23  C   UNL     1      20.208  44.949  60.469  0.00  0.00    +0.000 C 
ATOM     24  C   UNL     1      21.424  45.352  59.582  0.00  0.00    +0.000 C 
ATOM     25  N   UNL     1      22.006  44.167  58.890  0.00  0.00    +0.000 N 
ATOM     26  C   UNL     1      22.184  42.963  59.760  0.00  0.00    +0.000 C 
ATOM     27  C   UNL     1      20.912  42.645  60.586  0.00  0.00    +0.000 C 
ATOM     28  O   UNL     1      20.529  43.825  61.326  0.00  0.00    +0.000 OA
ATOM     29  H   UNL     1      21.271  43.847  58.258  0.00  0.00    +0.000 HD
ENDBRANCH  22  25
ENDBRANCH  18  22
ENDBRANCH   1  16
TORSDOF 6
ENDMDL
MODEL 3
REMARK VINA RESULT:    -9.155      2.592      4.024
REMARK INTER + INTRA:         -13.286
REMARK INTER:                 -12.251
REMARK INTRA:                  -1.035
REMARK UNBOUND:                -0.920
REMARK  Name = 6hd6_ligand
REMARK  6 active torsions:
REMARK  status: ('A' for Active; 'I' for Inactive)
REMARK    1  A    between atoms: C_1  and  O_18
REMARK    2  A    between atoms: C_4  and  N_22
REMARK    3  A    between atoms: C_7  and  C_8
REMARK    4  A    between atoms: C_10  and  C_14
REMARK    5  A    between atoms: C_14  and  N_24
REMARK    6  A    between atoms: O_18  and  C_19
REMARK                            x       y       z     vdW  Elec       q    Type
REMARK                         _______ _______ _______ _____ _____    ______ ____
ROOT
ATOM      1  C   UNL     1      20.137  43.435  53.917  0.00  0.00    +0.000 C 
ATOM      2  N   UNL     1      19.680  43.266  52.638  0.00  0.00    +0.000 N 
ATOM      3  O   UNL     1      19.420  43.359  54.908  0.00  0.00    +0.000 OA
ATOM      4  H   UNL     1      19.563  44.112  52.079  0.00  0.00    +0.000 HD
ENDROOT
BRANCH   2   5
ATOM      5  C   UNL     1      19.351  42.035  52.003  0.00  0.00    +0.000 A 
ATOM      6  C   UNL     1      18.056  41.489  52.104  0.00  0.00    +0.000 A 
ATOM      7  C   UNL     1      17.726  40.247  51.519  0.00  0.00    +0.000 A 
ATOM      8  C   UNL     1      18.718  39.513  50.836  0.00  0.00    +0.000 A 
ATOM      9  C   UNL     1      20.010  40.046  50.759  0.00  0.00    +0.000 A 
ATOM     10  C   UNL     1      20.320  41.282  51.343  0.00  0.00    +0.000 A 
BRANCH   8  11
ATOM     11  O   UNL     1      18.482  38.272  50.225  0.00  0.00    +0.000 OA
BRANCH  11  12
ATOM     12  C   UNL     1      17.535  38.103  49.150  0.00  0.00    +0.000 C 
ATOM     13  F   UNL     1      17.528  39.197  48.353  0.00  0.00    +0.000 F 
ATOM     14  F   UNL     1      16.269  37.895  49.573  0.00  0.00    +0.000 F 
ATOM     15  F   UNL     1      17.885  37.004  48.441  0.00  0.00    +0.000 F 
ENDBRANCH  11  12
ENDBRANCH   8  11
ENDBRANCH   2   5
BRANCH   1  16
ATOM     16  C   UNL     1      21.591  43.763  54.211  0.00  0.00    +0.000 A 
ATOM     17  C   UNL     1      21.951  44.785  55.115  0.00  0.00    +0.000 A 
ATOM     18  C   UNL     1      23.309  45.094  55.361  0.00  0.00    +0.000 A 
ATOM     19  C   UNL     1      24.293  44.365  54.675  0.00  0.00    +0.000 A 
ATOM     20  C   UNL     1      23.953  43.357  53.769  0.00  0.00    +0.000 A 
ATOM     21  C   UNL     1      22.605  43.066  53.535  0.00  0.00    +0.000 A 
BRANCH  18  22
ATOM     22  C   UNL     1      23.677  46.213  56.369  0.00  0.00    +0.000 C 
BRANCH  22  25
ATOM     23  C   UNL     1      24.184  44.436  59.782  0.00  0.00    +0.000 C 
ATOM     24  C   UNL     1      24.208  44.614  58.235  0.00  0.00    +0.000 C 
ATOM     25  N   UNL     1      23.585  45.905  57.829  0.00  0.00    +0.000 N 
ATOM     26  C   UNL     1      22.294  46.217  58.517  0.00  0.00    +0.000 C 
ATOM     27  C   UNL     1      22.386  46.021  60.052  0.00  0.00    +0.000 C 
ATOM     28  O   UNL     1      22.864  44.684  60.323  0.00  0.00    +0.000 OA
ATOM     29  H   UNL     1      24.195  46.624  58.219  0.00  0.00    +0.000 HD
ENDBRANCH  22  25
ENDBRANCH  18  22
ENDBRANCH   1  16
TORSDOF 6
ENDMDL
MODEL 4
REMARK VINA RESULT:    -8.914      1.521      2.441
REMARK INTER + INTRA:         -12.961
REMARK INTER:                 -11.887
REMARK INTRA:                  -1.074
REMARK UNBOUND:                -0.920
REMARK  Name = 6hd6_ligand
REMARK  6 active torsions:
REMARK  status: ('A' for Active; 'I' for Inactive)
REMARK    1  A    between atoms: C_1  and  O_18
REMARK    2  A    between atoms: C_4  and  N_22
REMARK    3  A    between atoms: C_7  and  C_8
REMARK    4  A    between atoms: C_10  and  C_14
REMARK    5  A    between atoms: C_14  and  N_24
REMARK    6  A    between atoms: O_18  and  C_19
REMARK                            x       y       z     vdW  Elec       q    Type
REMARK                         _______ _______ _______ _____ _____    ______ ____
ROOT
ATOM      1  C   UNL     1      21.664  43.752  55.404  0.00  0.00    +0.000 C 
ATOM      2  N   UNL     1      20.928  43.952  54.267  0.00  0.00    +0.000 N 
ATOM      3  O   UNL     1      21.170  43.475  56.491  0.00  0.00    +0.000 OA
ATOM      4  H   UNL     1      20.806  44.920  53.967  0.00  0.00    +0.000 HD
ENDROOT
BRANCH   2   5
ATOM      5  C   UNL     1      20.316  42.954  53.458  0.00  0.00    +0.000 A 
ATOM      6  C   UNL     1      21.037  42.299  52.440  0.00  0.00    +0.000 A 
ATOM      7  C   UNL     1      20.432  41.341  51.599  0.00  0.00    +0.000 A 
ATOM      8  C   UNL     1      19.063  41.041  51.757  0.00  0.00    +0.000 A 
ATOM      9  C   UNL     1      18.341  41.711  52.753  0.00  0.00    +0.000 A 
ATOM     10  C   UNL     1      18.960  42.658  53.581  0.00  0.00    +0.000 A 
BRANCH   8  11
ATOM     11  O   UNL     1      18.378  40.104  50.968  0.00  0.00    +0.000 OA
BRANCH  11  12
ATOM     12  C   UNL     1      18.011  38.798  51.457  0.00  0.00    +0.000 C 
ATOM     13  F   UNL     1      18.053  37.890  50.454  0.00  0.00    +0.000 F 
ATOM     14  F   UNL     1      16.775  38.752  52.000  0.00  0.00    +0.000 F 
ATOM     15  F   UNL     1      18.872  38.454  52.444  0.00  0.00    +0.000 F 
ENDBRANCH  11  12
ENDBRANCH   8  11
ENDBRANCH   2   5
BRANCH   1  16
ATOM     16  C   UNL     1      23.177  43.887  55.412  0.00  0.00    +0.000 A 
ATOM     17  C   UNL     1      23.922  43.944  54.214  0.00  0.00    +0.000 A 
ATOM     18  C   UNL     1      25.331  44.047  54.238  0.00  0.00    +0.000 A 
ATOM     19  C   UNL     1      25.976  44.079  55.485  0.00  0.00    +0.000 A 
ATOM     20  C   UNL     1      25.255  44.013  56.679  0.00  0.00    +0.000 A 
ATOM     21  C   UNL     1      23.860  43.909  56.638  0.00  0.00    +0.000 A 
BRANCH  18  22
ATOM     22  C   UNL     1      26.124  44.121  52.907  0.00  0.00    +0.000 C 
BRANCH  22  25
ATOM     23  C   UNL     1      26.296  47.963  52.384  0.00  0.00    +0.000 C 
ATOM     24  C   UNL     1      26.011  46.623  53.126  0.00  0.00    +0.000 C 
ATOM     25  N   UNL     1      26.253  45.451  52.238  0.00  0.00    +0.000 N 
ATOM     26  C   UNL     1      25.686  45.585  50.860  0.00  0.00    +0.000 C 
ATOM     27  C   UNL     1      26.041  46.948  50.211  0.00  0.00    +0.000 C 
ATOM     28  O   UNL     1      25.627  48.009  51.100  0.00  0.00    +0.000 OA
ATOM     29  H   UNL     1      27.255  45.474  52.042  0.00  0.00    +0.000 HD
ENDBRANCH  22  25
ENDBRANCH  18  22
ENDBRANCH   1  16
TORSDOF 6
ENDMDL
MODEL 5
REMARK VINA RESULT:    -8.562      2.745      3.915
REMARK INTER + INTRA:         -12.485
REMARK INTER:                 -11.565
REMARK INTRA:                  -0.920
REMARK UNBOUND:                -0.920
REMARK  Name = 6hd6_ligand
REMARK  6 active torsions:
REMARK  status: ('A' for Active; 'I' for Inactive)
REMARK    1  A    between atoms: C_1  and  O_18
REMARK    2  A    between atoms: C_4  and  N_22
REMARK    3  A    between atoms: C_7  and  C_8
REMARK    4  A    between atoms: C_10  and  C_14
REMARK    5  A    between atoms: C_14  and  N_24
REMARK    6  A    between atoms: O_18  and  C_19
REMARK                            x       y       z     vdW  Elec       q    Type
REMARK                         _______ _______ _______ _____ _____    ______ ____
ROOT
ATOM      1  C   UNL     1      21.401  43.095  54.863  0.00  0.00    +0.000 C 
ATOM      2  N   UNL     1      20.325  43.334  54.053  0.00  0.00    +0.000 N 
ATOM      3  O   UNL     1      21.367  42.343  55.831  0.00  0.00    +0.000 OA
ATOM      4  H   UNL     1      19.849  44.228  54.178  0.00  0.00    +0.000 HD
ENDROOT
BRANCH   2   5
ATOM      5  C   UNL     1      19.798  42.468  53.052  0.00  0.00    +0.000 A 
ATOM      6  C   UNL     1      18.431  42.125  53.034  0.00  0.00    +0.000 A 
ATOM      7  C   UNL     1      17.903  41.233  52.077  0.00  0.00    +0.000 A 
ATOM      8  C   UNL     1      18.760  40.643  51.126  0.00  0.00    +0.000 A 
ATOM      9  C   UNL     1      20.123  40.965  51.162  0.00  0.00    +0.000 A 
ATOM     10  C   UNL     1      20.630  41.857  52.118  0.00  0.00    +0.000 A 
BRANCH   8  11
ATOM     11  O   UNL     1      18.324  39.745  50.138  0.00  0.00    +0.000 OA
BRANCH  11  12
ATOM     12  C   UNL     1      17.918  38.395  50.442  0.00  0.00    +0.000 C 
ATOM     13  F   UNL     1      18.949  37.702  50.977  0.00  0.00    +0.000 F 
ATOM     14  F   UNL     1      17.478  37.709  49.365  0.00  0.00    +0.000 F 
ATOM     15  F   UNL     1      16.880  38.446  51.310  0.00  0.00    +0.000 F 
ENDBRANCH  11  12
ENDBRANCH   8  11
ENDBRANCH   2   5
BRANCH   1  16
ATOM     16  C   UNL     1      22.740  43.775  54.637  0.00  0.00    +0.000 A 
ATOM     17  C   UNL     1      23.253  44.721  55.552  0.00  0.00    +0.000 A 
ATOM     18  C   UNL     1      24.490  45.363  55.317  0.00  0.00    +0.000 A 
ATOM     19  C   UNL     1      25.193  45.046  54.143  0.00  0.00    +0.000 A 
ATOM     20  C   UNL     1      24.695  44.120  53.223  0.00  0.00    +0.000 A 
ATOM     21  C   UNL     1      23.467  43.495  53.470  0.00  0.00    +0.000 A 
BRANCH  18  22
ATOM     22  C   UNL     1      25.037  46.388  56.344  0.00  0.00    +0.000 C 
BRANCH  22  25
ATOM     23  C   UNL     1      26.888  44.343  59.074  0.00  0.00    +0.000 C 
ATOM     24  C   UNL     1      26.392  44.718  57.646  0.00  0.00    +0.000 C 
ATOM     25  N   UNL     1      25.464  45.883  57.684  0.00  0.00    +0.000 N 
ATOM     26  C   UNL     1      24.422  45.815  58.756  0.00  0.00    +0.000 C 
ATOM     27  C   UNL     1      25.026  45.449  60.136  0.00  0.00    +0.000 C 
ATOM     28  O   UNL     1      25.783  44.226  60.004  0.00  0.00    +0.000 OA
ATOM     29  H   UNL     1      26.035  46.662  58.013  0.00  0.00    +0.000 HD
ENDBRANCH  22  25
ENDBRANCH  18  22
ENDBRANCH   1  16
TORSDOF 6
ENDMDL
