MODEL 1
REMARK VINA RESULT:    -7.962      0.000      0.000
REMARK INTER + INTRA:         -33.529
REMARK INTER:                 -23.333
REMARK INTRA:                 -10.196
REMARK UNBOUND:                -8.113
REMARK  Name = 6hld_ligand
REMARK  39 active torsions:
REMARK  status: ('A' for Active; 'I' for Inactive)
REMARK    1  A    between atoms: N_1  and  C_2
REMARK    2  A    between atoms: C_2  and  C_3
REMARK    3  A    between atoms: C_2  and  C_5
REMARK    4  A    between atoms: C_5  and  C_6
REMARK    5  A    between atoms: N_16  and  C_17
REMARK    6  A    between atoms: C_17  and  C_18
REMARK    7  A    between atoms: C_17  and  C_20
REMARK    8  A    between atoms: C_20  and  C_21
REMARK    9  A    between atoms: C_21  and  C_22
REMARK   10  A    between atoms: C_22  and  N_23
REMARK   11  A    between atoms: N_27  and  C_28
REMARK   12  A    between atoms: C_28  and  C_29
REMARK   13  A    between atoms: C_28  and  C_31
REMARK   14  A    between atoms: C_31  and  C_32
REMARK   15  A    between atoms: C_32  and  C_33
REMARK   16  A    between atoms: C_33  and  N_34
REMARK   17  A    between atoms: N_38  and  C_39
REMARK   18  A    between atoms: C_39  and  C_40
REMARK   19  A    between atoms: C_39  and  C_42
REMARK   20  A    between atoms: C_42  and  C_43
REMARK   21  A    between atoms: C_43  and  C_44
REMARK   22  A    between atoms: C_44  and  N_45
REMARK   23  A    between atoms: C_49  and  C_52
REMARK   24  A    between atoms: N_50  and  C_52
REMARK   25  A    between atoms: C_52  and  C_53
REMARK   26  A    between atoms: C_53  and  C_56
REMARK   27  A    between atoms: C_54  and  C_55
REMARK   28  A    between atoms: C_54  and  C_56
REMARK   29  A    between atoms: C_55  and  N_57
REMARK   30  A    between atoms: N_58  and  C_59
REMARK   31  A    between atoms: C_59  and  C_60
REMARK   32  A    between atoms: C_59  and  C_62
REMARK   33  A    between atoms: C_62  and  C_63
REMARK   34  A    between atoms: C_63  and  C_64
REMARK   35  A    between atoms: C_64  and  C_65
REMARK   36  A    between atoms: C_65  and  N_66
REMARK   37  A    between atoms: N_67  and  C_68
REMARK   38  A    between atoms: C_68  and  C_69
REMARK   39  A    between atoms: C_72  and  C_73
REMARK                            x       y       z     vdW  Elec       q    Type
REMARK                         _______ _______ _______ _____ _____    ______ ____
ROOT
ATOM      1  C   UNL     1      46.080 -41.256 -10.464  0.00  0.00    +0.159 C 
ENDROOT
BRANCH   1   2
ATOM      2  C   UNL     1      46.705 -42.069  -9.298  0.00  0.00    +0.234 C 
ATOM      3  N   UNL     1      46.515 -41.574  -8.061  0.00  0.00    -0.302 N 
ATOM      4  H   UNL     1      46.780 -42.147  -7.260  0.00  0.00    +0.150 HD
ATOM      5  O   UNL     1      47.363 -43.085  -9.519  0.00  0.00    -0.274 OA
BRANCH   3   6
ATOM      6  C   UNL     1      45.936 -40.231  -7.813  0.00  0.00    +0.159 C 
BRANCH   6   7
ATOM      7  C   UNL     1      46.787 -39.437  -6.806  0.00  0.00    +0.234 C 
ATOM      8  N   UNL     1      47.722 -38.622  -7.349  0.00  0.00    -0.302 N 
ATOM      9  H   UNL     1      47.415 -37.725  -7.726  0.00  0.00    +0.150 HD
ATOM     10  O   UNL     1      46.589 -39.550  -5.592  0.00  0.00    -0.274 OA
BRANCH   8  11
ATOM     11  C   UNL     1      49.153 -38.954  -7.427  0.00  0.00    +0.159 C 
BRANCH  11  12
ATOM     12  C   UNL     1      49.793 -37.812  -8.219  0.00  0.00    +0.234 C 
ATOM     13  N   UNL     1      50.526 -36.914  -7.532  0.00  0.00    -0.310 N 
ATOM     14  H   UNL     1      50.048 -36.234  -6.940  0.00  0.00    +0.149 HD
ATOM     15  O   UNL     1      49.588 -37.731  -9.423  0.00  0.00    -0.274 OA
BRANCH  13  16
ATOM     16  C   UNL     1      52.001 -36.888  -7.609  0.00  0.00    +0.139 C 
BRANCH  16  17
ATOM     17  C   UNL     1      52.510 -36.858  -6.254  0.00  0.00    -0.030 A 
ATOM     18  C   UNL     1      51.665 -36.818  -5.141  0.00  0.00    +0.006 A 
ATOM     19  C   UNL     1      52.182 -36.798  -3.826  0.00  0.00    +0.016 A 
ATOM     20  C   UNL     1      53.555 -36.827  -3.575  0.00  0.00    +0.065 A 
ATOM     21  C   UNL     1      54.397 -36.875  -4.690  0.00  0.00    +0.016 A 
ATOM     22  C   UNL     1      53.874 -36.883  -5.997  0.00  0.00    +0.006 A 
BRANCH  20  23
ATOM     23  C   UNL     1      54.068 -36.808  -2.257  0.00  0.00    +0.308 C 
ATOM     24  N   UNL     1      55.369 -36.551  -2.064  0.00  0.00    -0.099 NA
ATOM     25  H   UNL     1      55.977 -36.373  -2.863  0.00  0.00    +0.363 HD
ATOM     26  N   UNL     1      53.251 -37.088  -1.225  0.00  0.00    -0.247 N 
ATOM     27  H   UNL     1      53.186 -38.042  -0.871  0.00  0.00    +0.288 HD
ATOM     28  H   UNL     1      52.697 -36.346  -0.798  0.00  0.00    +0.288 HD
ENDBRANCH  20  23
ENDBRANCH  16  17
ENDBRANCH  13  16
ENDBRANCH  11  12
BRANCH  11  29
ATOM     29  C   UNL     1      49.364 -40.278  -8.202  0.00  0.00    +0.032 C 
BRANCH  29  30
ATOM     30  C   UNL     1      49.959 -41.359  -7.301  0.00  0.00    +0.007 C 
BRANCH  30  31
ATOM     31  C   UNL     1      50.636 -42.480  -8.145  0.00  0.00    +0.051 C 
BRANCH  31  32
ATOM     32  C   UNL     1      50.796 -41.973  -9.587  0.00  0.00    +0.127 C 
BRANCH  32  33
ATOM     33  N   UNL     1      52.206 -41.802  -9.990  0.00  0.00    +0.219 N 
ATOM     34  H   UNL     1      52.507 -42.618 -10.523  0.00  0.00    +0.199 HD
ATOM     35  H   UNL     1      52.787 -41.704  -9.158  0.00  0.00    +0.199 HD
ATOM     36  H   UNL     1      52.294 -40.966 -10.568  0.00  0.00    +0.199 HD
ENDBRANCH  32  33
ENDBRANCH  31  32
ENDBRANCH  30  31
ENDBRANCH  29  30
ENDBRANCH  11  29
ENDBRANCH   8  11
ENDBRANCH   6   7
BRANCH   6  37
ATOM     37  C   UNL     1      44.547 -40.446  -7.182  0.00  0.00    +0.032 C 
BRANCH  37  38
ATOM     38  C   UNL     1      43.710 -39.150  -7.145  0.00  0.00    +0.007 C 
BRANCH  38  39
ATOM     39  C   UNL     1      42.761 -39.171  -5.926  0.00  0.00    +0.051 C 
BRANCH  39  40
ATOM     40  C   UNL     1      43.539 -39.478  -4.632  0.00  0.00    +0.127 C 
BRANCH  40  41
ATOM     41  N   UNL     1      43.159 -38.561  -3.540  0.00  0.00    +0.219 N 
ATOM     42  H   UNL     1      42.190 -38.734  -3.274  0.00  0.00    +0.199 HD
ATOM     43  H   UNL     1      43.259 -37.597  -3.857  0.00  0.00    +0.199 HD
ATOM     44  H   UNL     1      43.767 -38.720  -2.736  0.00  0.00    +0.199 HD
ENDBRANCH  40  41
ENDBRANCH  39  40
ENDBRANCH  38  39
ENDBRANCH  37  38
ENDBRANCH   6  37
ENDBRANCH   3   6
ENDBRANCH   1   2
BRANCH   1  46
ATOM     45  C   UNL     1      45.997 -38.856 -11.112  0.00  0.00    +0.234 C 
ATOM     46  N   UNL     1      46.590 -39.866 -10.430  0.00  0.00    -0.302 N 
ATOM     47  H   UNL     1      47.419 -39.661  -9.873  0.00  0.00    +0.150 HD
ATOM     48  O   UNL     1      44.785 -38.639 -11.070  0.00  0.00    -0.274 OA
BRANCH  45  49
ATOM     49  C   UNL     1      46.919 -37.971 -11.996  0.00  0.00    +0.159 C 
BRANCH  49  51
ATOM     50  C   UNL     1      46.915 -35.511 -11.749  0.00  0.00    +0.234 C 
ATOM     51  N   UNL     1      47.270 -36.723 -11.285  0.00  0.00    -0.302 N 
ATOM     52  H   UNL     1      47.797 -36.784 -10.415  0.00  0.00    +0.150 HD
ATOM     53  O   UNL     1      45.777 -35.240 -12.133  0.00  0.00    -0.274 OA
BRANCH  50  54
ATOM     54  C   UNL     1      48.039 -34.457 -11.744  0.00  0.00    +0.159 C 
BRANCH  54  56
ATOM     55  C   UNL     1      49.100 -34.509  -9.510  0.00  0.00    +0.262 C 
ATOM     56  N   UNL     1      49.137 -34.823 -10.822  0.00  0.00    -0.299 N 
ATOM     57  H   UNL     1      49.944 -35.328 -11.189  0.00  0.00    +0.150 HD
ATOM     58  O   UNL     1      48.173 -34.831  -8.765  0.00  0.00    -0.270 OA
BRANCH  55  59
ATOM     59  C   UNL     1      50.299 -33.699  -8.953  0.00  0.00    +0.152 C 
BRANCH  59  60
ATOM     60  N   UNL     1      50.563 -32.483  -9.750  0.00  0.00    +0.228 N 
ATOM     61  H   UNL     1      49.829 -31.797  -9.574  0.00  0.00    +0.200 HD
ATOM     62  H   UNL     1      50.575 -32.724 -10.741  0.00  0.00    +0.200 HD
ATOM     63  H   UNL     1      51.467 -32.092  -9.483  0.00  0.00    +0.200 HD
ENDBRANCH  59  60
BRANCH  59  64
ATOM     64  C   UNL     1      50.036 -33.352  -7.480  0.00  0.00    +0.099 C 
BRANCH  64  65
ATOM     65  C   UNL     1      51.232 -33.311  -6.764  0.00  0.00    -0.034 A 
ATOM     66  C   UNL     1      51.199 -33.311  -5.373  0.00  0.00    -0.014 A 
ATOM     67  C   UNL     1      49.979 -33.349  -4.707  0.00  0.00    +0.009 A 
ATOM     68  C   UNL     1      49.943 -33.348  -3.319  0.00  0.00    +0.001 A 
ATOM     69  C   UNL     1      51.131 -33.310  -2.595  0.00  0.00    +0.001 A 
ATOM     70  C   UNL     1      52.350 -33.272  -3.259  0.00  0.00    +0.008 A 
ATOM     71  C   UNL     1      52.385 -33.273  -4.649  0.00  0.00    -0.018 A 
ATOM     72  C   UNL     1      53.605 -33.236  -5.313  0.00  0.00    +0.008 A 
ATOM     73  C   UNL     1      53.642 -33.237  -6.702  0.00  0.00    +0.001 A 
ATOM     74  C   UNL     1      52.457 -33.275  -7.425  0.00  0.00    +0.004 A 
ENDBRANCH  64  65
ENDBRANCH  59  64
ENDBRANCH  55  59
ENDBRANCH  54  56
BRANCH  54  75
ATOM     75  C   UNL     1      48.591 -34.273 -13.166  0.00  0.00    +0.035 C 
BRANCH  75  76
ATOM     76  C   UNL     1      48.304 -32.835 -13.615  0.00  0.00    +0.039 C 
BRANCH  76  77
ATOM     77  C   UNL     1      49.506 -32.237 -14.360  0.00  0.00    +0.196 C 
BRANCH  77  78
ATOM     78  N   UNL     1      50.684 -32.034 -13.481  0.00  0.00    -0.276 N 
ATOM     79  H   UNL     1      50.705 -31.161 -12.953  0.00  0.00    +0.258 HD
ATOM     80  C   UNL     1      51.741 -32.870 -13.296  0.00  0.00    +0.376 C 
ATOM     81  N   UNL     1      52.077 -33.813 -14.198  0.00  0.00    -0.289 N 
ATOM     82  H   UNL     1      51.364 -34.439 -14.572  0.00  0.00    +0.255 HD
ATOM     83  H   UNL     1      53.045 -33.901 -14.507  0.00  0.00    +0.255 HD
ATOM     84  N   UNL     1      52.475 -32.762 -12.180  0.00  0.00    -0.130 NA
ATOM     85  H   UNL     1      52.238 -32.057 -11.481  0.00  0.00    +0.306 HD
ENDBRANCH  77  78
ENDBRANCH  76  77
ENDBRANCH  75  76
ENDBRANCH  54  75
ENDBRANCH  50  54
ENDBRANCH  49  51
BRANCH  49  86
ATOM     86  C   UNL     1      48.214 -38.707 -12.397  0.00  0.00    +0.035 C 
BRANCH  86  87
ATOM     87  C   UNL     1      49.073 -37.864 -13.384  0.00  0.00    +0.039 C 
BRANCH  87  88
ATOM     88  C   UNL     1      50.372 -38.622 -13.693  0.00  0.00    +0.196 C 
BRANCH  88  89
ATOM     89  N   UNL     1      51.586 -37.871 -13.311  0.00  0.00    -0.276 N 
ATOM     90  H   UNL     1      52.303 -37.728 -14.022  0.00  0.00    +0.258 HD
ATOM     91  C   UNL     1      51.802 -37.365 -12.079  0.00  0.00    +0.376 C 
ATOM     92  N   UNL     1      52.118 -38.193 -11.045  0.00  0.00    -0.289 N 
ATOM     93  H   UNL     1      52.971 -38.036 -10.509  0.00  0.00    +0.255 HD
ATOM     94  H   UNL     1      51.501 -38.969 -10.807  0.00  0.00    +0.255 HD
ATOM     95  N   UNL     1      51.686 -36.032 -11.883  0.00  0.00    -0.130 NA
ATOM     96  H   UNL     1      51.437 -35.422 -12.662  0.00  0.00    +0.306 HD
ENDBRANCH  88  89
ENDBRANCH  87  88
ENDBRANCH  86  87
ENDBRANCH  49  86
ENDBRANCH  45  49
ENDBRANCH   1  46
BRANCH   1  97
ATOM     97  C   UNL     1      46.370 -41.884 -11.848  0.00  0.00    +0.035 C 
BRANCH  97  98
ATOM     98  C   UNL     1      45.051 -42.267 -12.571  0.00  0.00    +0.039 C 
BRANCH  98  99
ATOM     99  C   UNL     1      44.551 -41.070 -13.398  0.00  0.00    +0.196 C 
BRANCH  99 100
ATOM    100  N   UNL     1      43.138 -40.735 -13.123  0.00  0.00    -0.276 N 
ATOM    101  H   UNL     1      42.892 -39.755 -12.982  0.00  0.00    +0.258 HD
ATOM    102  C   UNL     1      42.154 -41.664 -13.048  0.00  0.00    +0.376 C 
ATOM    103  N   UNL     1      41.594 -41.949 -11.863  0.00  0.00    -0.130 NA
ATOM    104  H   UNL     1      41.908 -41.467 -11.021  0.00  0.00    +0.306 HD
ATOM    105  N   UNL     1      41.732 -42.324 -14.149  0.00  0.00    -0.289 N 
ATOM    106  H   UNL     1      42.306 -42.328 -14.992  0.00  0.00    +0.255 HD
ATOM    107  H   UNL     1      40.840 -42.817 -14.138  0.00  0.00    +0.255 HD
ENDBRANCH  99 100
ENDBRANCH  98  99
ENDBRANCH  97  98
ENDBRANCH   1  97
TORSDOF 39
ENDMDL
MODEL 2
REMARK VINA RESULT:    -7.947      2.606      9.039
REMARK INTER + INTRA:         -33.481
REMARK INTER:                 -25.278
REMARK INTRA:                  -8.203
REMARK UNBOUND:                -8.113
REMARK  Name = 6hld_ligand
REMARK  39 active torsions:
REMARK  status: ('A' for Active; 'I' for Inactive)
REMARK    1  A    between atoms: N_1  and  C_2
REMARK    2  A    between atoms: C_2  and  C_3
REMARK    3  A    between atoms: C_2  and  C_5
REMARK    4  A    between atoms: C_5  and  C_6
REMARK    5  A    between atoms: N_16  and  C_17
REMARK    6  A    between atoms: C_17  and  C_18
REMARK    7  A    between atoms: C_17  and  C_20
REMARK    8  A    between atoms: C_20  and  C_21
REMARK    9  A    between atoms: C_21  and  C_22
REMARK   10  A    between atoms: C_22  and  N_23
REMARK   11  A    between atoms: N_27  and  C_28
REMARK   12  A    between atoms: C_28  and  C_29
REMARK   13  A    between atoms: C_28  and  C_31
REMARK   14  A    between atoms: C_31  and  C_32
REMARK   15  A    between atoms: C_32  and  C_33
REMARK   16  A    between atoms: C_33  and  N_34
REMARK   17  A    between atoms: N_38  and  C_39
REMARK   18  A    between atoms: C_39  and  C_40
REMARK   19  A    between atoms: C_39  and  C_42
REMARK   20  A    between atoms: C_42  and  C_43
REMARK   21  A    between atoms: C_43  and  C_44
REMARK   22  A    between atoms: C_44  and  N_45
REMARK   23  A    between atoms: C_49  and  C_52
REMARK   24  A    between atoms: N_50  and  C_52
REMARK   25  A    between atoms: C_52  and  C_53
REMARK   26  A    between atoms: C_53  and  C_56
REMARK   27  A    between atoms: C_54  and  C_55
REMARK   28  A    between atoms: C_54  and  C_56
REMARK   29  A    between atoms: C_55  and  N_57
REMARK   30  A    between atoms: N_58  and  C_59
REMARK   31  A    between atoms: C_59  and  C_60
REMARK   32  A    between atoms: C_59  and  C_62
REMARK   33  A    between atoms: C_62  and  C_63
REMARK   34  A    between atoms: C_63  and  C_64
REMARK   35  A    between atoms: C_64  and  C_65
REMARK   36  A    between atoms: C_65  and  N_66
REMARK   37  A    between atoms: N_67  and  C_68
REMARK   38  A    between atoms: C_68  and  C_69
REMARK   39  A    between atoms: C_72  and  C_73
REMARK                            x       y       z     vdW  Elec       q    Type
REMARK                         _______ _______ _______ _____ _____    ______ ____
ROOT
ATOM      1  C   UNL     1      49.667 -35.125 -10.767  0.00  0.00    +0.159 C 
ENDROOT
BRANCH   1   2
ATOM      2  C   UNL     1      49.638 -36.253 -11.834  0.00  0.00    +0.234 C 
ATOM      3  N   UNL     1      48.438 -36.524 -12.378  0.00  0.00    -0.302 N 
ATOM      4  H   UNL     1      48.396 -37.151 -13.181  0.00  0.00    +0.150 HD
ATOM      5  O   UNL     1      50.660 -36.874 -12.122  0.00  0.00    -0.274 OA
BRANCH   3   6
ATOM      6  C   UNL     1      47.173 -35.949 -11.861  0.00  0.00    +0.159 C 
BRANCH   6   7
ATOM      7  C   UNL     1      46.453 -36.940 -10.928  0.00  0.00    +0.234 C 
ATOM      8  N   UNL     1      46.535 -38.243 -11.290  0.00  0.00    -0.302 N 
ATOM      9  H   UNL     1      47.398 -38.746 -11.083  0.00  0.00    +0.150 HD
ATOM     10  O   UNL     1      45.867 -36.538  -9.918  0.00  0.00    -0.274 OA
BRANCH   8  11
ATOM     11  C   UNL     1      45.450 -38.974 -11.964  0.00  0.00    +0.159 C 
BRANCH  11  12
ATOM     12  C   UNL     1      44.954 -39.999 -10.941  0.00  0.00    +0.234 C 
ATOM     13  N   UNL     1      44.901 -39.613  -9.652  0.00  0.00    -0.310 N 
ATOM     14  H   UNL     1      45.771 -39.514  -9.128  0.00  0.00    +0.149 HD
ATOM     15  O   UNL     1      44.666 -41.128 -11.318  0.00  0.00    -0.274 OA
BRANCH  13  16
ATOM     16  C   UNL     1      43.619 -39.327  -8.975  0.00  0.00    +0.139 C 
BRANCH  16  17
ATOM     17  C   UNL     1      43.849 -39.409  -7.549  0.00  0.00    -0.030 A 
ATOM     18  C   UNL     1      45.099 -39.734  -7.012  0.00  0.00    +0.006 A 
ATOM     19  C   UNL     1      45.305 -39.801  -5.616  0.00  0.00    +0.016 A 
ATOM     20  C   UNL     1      44.278 -39.538  -4.707  0.00  0.00    +0.065 A 
ATOM     21  C   UNL     1      43.031 -39.206  -5.247  0.00  0.00    +0.016 A 
ATOM     22  C   UNL     1      42.832 -39.153  -6.639  0.00  0.00    +0.006 A 
BRANCH  20  23
ATOM     23  C   UNL     1      44.489 -39.605  -3.310  0.00  0.00    +0.308 C 
ATOM     24  N   UNL     1      45.598 -40.195  -2.843  0.00  0.00    -0.099 NA
ATOM     25  H   UNL     1      46.277 -40.591  -3.494  0.00  0.00    +0.363 HD
ATOM     26  N   UNL     1      43.556 -39.112  -2.476  0.00  0.00    -0.247 N 
ATOM     27  H   UNL     1      42.834 -39.726  -2.099  0.00  0.00    +0.288 HD
ATOM     28  H   UNL     1      43.571 -38.125  -2.221  0.00  0.00    +0.288 HD
ENDBRANCH  20  23
ENDBRANCH  16  17
ENDBRANCH  13  16
ENDBRANCH  11  12
BRANCH  11  29
ATOM     29  C   UNL     1      45.990 -39.729 -13.204  0.00  0.00    +0.032 C 
BRANCH  29  30
ATOM     30  C   UNL     1      45.094 -39.508 -14.422  0.00  0.00    +0.007 C 
BRANCH  30  31
ATOM     31  C   UNL     1      44.214 -40.761 -14.703  0.00  0.00    +0.051 C 
BRANCH  31  32
ATOM     32  C   UNL     1      42.762 -40.433 -14.317  0.00  0.00    +0.127 C 
BRANCH  32  33
ATOM     33  N   UNL     1      42.279 -41.206 -13.156  0.00  0.00    +0.219 N 
ATOM     34  H   UNL     1      41.561 -41.864 -13.462  0.00  0.00    +0.199 HD
ATOM     35  H   UNL     1      41.886 -40.568 -12.464  0.00  0.00    +0.199 HD
ATOM     36  H   UNL     1      43.058 -41.719 -12.743  0.00  0.00    +0.199 HD
ENDBRANCH  32  33
ENDBRANCH  31  32
ENDBRANCH  30  31
ENDBRANCH  29  30
ENDBRANCH  11  29
ENDBRANCH   8  11
ENDBRANCH   6   7
BRANCH   6  37
ATOM     37  C   UNL     1      46.256 -35.703 -13.075  0.00  0.00    +0.032 C 
BRANCH  37  38
ATOM     38  C   UNL     1      46.853 -36.257 -14.385  0.00  0.00    +0.007 C 
BRANCH  38  39
ATOM     39  C   UNL     1      46.983 -35.122 -15.426  0.00  0.00    +0.051 C 
BRANCH  39  40
ATOM     40  C   UNL     1      47.873 -33.986 -14.888  0.00  0.00    +0.127 C 
BRANCH  40  41
ATOM     41  N   UNL     1      48.121 -32.957 -15.918  0.00  0.00    +0.219 N 
ATOM     42  H   UNL     1      49.123 -32.779 -15.985  0.00  0.00    +0.199 HD
ATOM     43  H   UNL     1      47.637 -32.097 -15.661  0.00  0.00    +0.199 HD
ATOM     44  H   UNL     1      47.773 -33.287 -16.818  0.00  0.00    +0.199 HD
ENDBRANCH  40  41
ENDBRANCH  39  40
ENDBRANCH  38  39
ENDBRANCH  37  38
ENDBRANCH   6  37
ENDBRANCH   3   6
ENDBRANCH   1   2
BRANCH   1  46
ATOM     45  C   UNL     1      49.609 -35.050  -8.281  0.00  0.00    +0.234 C 
ATOM     46  N   UNL     1      49.896 -35.713  -9.427  0.00  0.00    -0.302 N 
ATOM     47  H   UNL     1      50.286 -36.653  -9.365  0.00  0.00    +0.150 HD
ATOM     48  O   UNL     1      48.530 -34.487  -8.085  0.00  0.00    -0.274 OA
BRANCH  45  49
ATOM     49  C   UNL     1      50.726 -34.997  -7.202  0.00  0.00    +0.159 C 
BRANCH  49  51
ATOM     50  C   UNL     1      50.260 -34.156  -4.925  0.00  0.00    +0.234 C 
ATOM     51  N   UNL     1      50.142 -35.126  -5.851  0.00  0.00    -0.302 N 
ATOM     52  H   UNL     1      49.634 -35.977  -5.613  0.00  0.00    +0.150 HD
ATOM     53  O   UNL     1      50.033 -32.968  -5.157  0.00  0.00    -0.274 OA
BRANCH  50  54
ATOM     54  C   UNL     1      50.678 -34.641  -3.523  0.00  0.00    +0.159 C 
BRANCH  54  56
ATOM     55  C   UNL     1      52.972 -33.735  -3.699  0.00  0.00    +0.262 C 
ATOM     56  N   UNL     1      52.146 -34.758  -3.393  0.00  0.00    -0.299 N 
ATOM     57  H   UNL     1      52.546 -35.636  -3.062  0.00  0.00    +0.150 HD
ATOM     58  O   UNL     1      52.872 -32.614  -3.200  0.00  0.00    -0.270 OA
BRANCH  55  59
ATOM     59  C   UNL     1      54.085 -34.025  -4.740  0.00  0.00    +0.152 C 
BRANCH  59  60
ATOM     60  N   UNL     1      54.233 -35.471  -5.003  0.00  0.00    +0.228 N 
ATOM     61  H   UNL     1      55.010 -35.620  -5.647  0.00  0.00    +0.200 HD
ATOM     62  H   UNL     1      53.373 -35.830  -5.416  0.00  0.00    +0.200 HD
ATOM     63  H   UNL     1      54.419 -35.958  -4.126  0.00  0.00    +0.200 HD
ENDBRANCH  59  60
BRANCH  59  64
ATOM     64  C   UNL     1      53.786 -33.251  -6.032  0.00  0.00    +0.099 C 
BRANCH  64  65
ATOM     65  C   UNL     1      54.970 -32.862  -6.658  0.00  0.00    -0.034 A 
ATOM     66  C   UNL     1      55.132 -33.093  -8.020  0.00  0.00    -0.014 A 
ATOM     67  C   UNL     1      54.120 -33.709  -8.747  0.00  0.00    +0.009 A 
ATOM     68  C   UNL     1      54.281 -33.941 -10.107  0.00  0.00    +0.001 A 
ATOM     69  C   UNL     1      55.457 -33.555 -10.741  0.00  0.00    +0.001 A 
ATOM     70  C   UNL     1      56.470 -32.940 -10.016  0.00  0.00    +0.008 A 
ATOM     71  C   UNL     1      56.308 -32.708  -8.655  0.00  0.00    -0.018 A 
ATOM     72  C   UNL     1      57.321 -32.091  -7.930  0.00  0.00    +0.008 A 
ATOM     73  C   UNL     1      57.161 -31.859  -6.570  0.00  0.00    +0.001 A 
ATOM     74  C   UNL     1      55.986 -32.243  -5.936  0.00  0.00    +0.004 A 
ENDBRANCH  64  65
ENDBRANCH  59  64
ENDBRANCH  55  59
ENDBRANCH  54  56
BRANCH  54  75
ATOM     75  C   UNL     1      50.133 -33.682  -2.454  0.00  0.00    +0.035 C 
BRANCH  75  76
ATOM     76  C   UNL     1      50.207 -34.382  -1.092  0.00  0.00    +0.039 C 
BRANCH  76  77
ATOM     77  C   UNL     1      51.470 -33.969  -0.324  0.00  0.00    +0.196 C 
BRANCH  77  78
ATOM     78  N   UNL     1      51.389 -32.590   0.218  0.00  0.00    -0.276 N 
ATOM     79  H   UNL     1      51.263 -31.845  -0.468  0.00  0.00    +0.258 HD
ATOM     80  C   UNL     1      51.464 -32.199   1.519  0.00  0.00    +0.376 C 
ATOM     81  N   UNL     1      52.041 -32.963   2.466  0.00  0.00    -0.289 N 
ATOM     82  H   UNL     1      51.793 -33.950   2.547  0.00  0.00    +0.255 HD
ATOM     83  H   UNL     1      52.725 -32.556   3.103  0.00  0.00    +0.255 HD
ATOM     84  N   UNL     1      50.946 -31.017   1.879  0.00  0.00    -0.130 NA
ATOM     85  H   UNL     1      50.501 -30.421   1.179  0.00  0.00    +0.306 HD
ENDBRANCH  77  78
ENDBRANCH  76  77
ENDBRANCH  75  76
ENDBRANCH  54  75
ENDBRANCH  50  54
ENDBRANCH  49  51
BRANCH  49  86
ATOM     86  C   UNL     1      51.778 -36.107  -7.407  0.00  0.00    +0.035 C 
BRANCH  86  87
ATOM     87  C   UNL     1      51.584 -37.277  -6.400  0.00  0.00    +0.039 C 
BRANCH  87  88
ATOM     88  C   UNL     1      50.936 -38.464  -7.128  0.00  0.00    +0.196 C 
BRANCH  88  89
ATOM     89  N   UNL     1      49.528 -38.682  -6.739  0.00  0.00    -0.276 N 
ATOM     90  H   UNL     1      49.338 -39.006  -5.790  0.00  0.00    +0.258 HD
ATOM     91  C   UNL     1      48.478 -38.481  -7.564  0.00  0.00    +0.376 C 
ATOM     92  N   UNL     1      48.225 -39.357  -8.575  0.00  0.00    -0.289 N 
ATOM     93  H   UNL     1      47.311 -39.805  -8.643  0.00  0.00    +0.255 HD
ATOM     94  H   UNL     1      48.948 -39.564  -9.263  0.00  0.00    +0.255 HD
ATOM     95  N   UNL     1      47.696 -37.393  -7.383  0.00  0.00    -0.130 NA
ATOM     96  H   UNL     1      47.902 -36.736  -6.630  0.00  0.00    +0.306 HD
ENDBRANCH  88  89
ENDBRANCH  87  88
ENDBRANCH  86  87
ENDBRANCH  49  86
ENDBRANCH  45  49
ENDBRANCH   1  46
BRANCH   1  97
ATOM     97  C   UNL     1      50.749 -34.058 -11.060  0.00  0.00    +0.035 C 
BRANCH  97  98
ATOM     98  C   UNL     1      50.317 -33.137 -12.232  0.00  0.00    +0.039 C 
BRANCH  98  99
ATOM     99  C   UNL     1      51.234 -33.380 -13.443  0.00  0.00    +0.196 C 
BRANCH  99 100
ATOM    100  N   UNL     1      52.627 -32.952 -13.199  0.00  0.00    -0.276 N 
ATOM    101  H   UNL     1      53.320 -33.667 -12.969  0.00  0.00    +0.258 HD
ATOM    102  C   UNL     1      53.033 -31.661 -13.265  0.00  0.00    +0.376 C 
ATOM    103  N   UNL     1      53.370 -31.008 -12.143  0.00  0.00    -0.130 NA
ATOM    104  H   UNL     1      53.321 -31.484 -11.242  0.00  0.00    +0.306 HD
ATOM    105  N   UNL     1      53.091 -31.008 -14.447  0.00  0.00    -0.289 N 
ATOM    106  H   UNL     1      52.597 -31.378 -15.259  0.00  0.00    +0.255 HD
ATOM    107  H   UNL     1      53.629 -30.145 -14.527  0.00  0.00    +0.255 HD
ENDBRANCH  99 100
ENDBRANCH  98  99
ENDBRANCH  97  98
ENDBRANCH   1  97
TORSDOF 39
ENDMDL
MODEL 3
REMARK VINA RESULT:    -7.932      2.298      5.203
REMARK INTER + INTRA:         -33.435
REMARK INTER:                 -21.189
REMARK INTRA:                 -12.246
REMARK UNBOUND:                -8.113
REMARK  Name = 6hld_ligand
REMARK  39 active torsions:
REMARK  status: ('A' for Active; 'I' for Inactive)
REMARK    1  A    between atoms: N_1  and  C_2
REMARK    2  A    between atoms: C_2  and  C_3
REMARK    3  A    between atoms: C_2  and  C_5
REMARK    4  A    between atoms: C_5  and  C_6
REMARK    5  A    between atoms: N_16  and  C_17
REMARK    6  A    between atoms: C_17  and  C_18
REMARK    7  A    between atoms: C_17  and  C_20
REMARK    8  A    between atoms: C_20  and  C_21
REMARK    9  A    between atoms: C_21  and  C_22
REMARK   10  A    between atoms: C_22  and  N_23
REMARK   11  A    between atoms: N_27  and  C_28
REMARK   12  A    between atoms: C_28  and  C_29
REMARK   13  A    between atoms: C_28  and  C_31
REMARK   14  A    between atoms: C_31  and  C_32
REMARK   15  A    between atoms: C_32  and  C_33
REMARK   16  A    between atoms: C_33  and  N_34
REMARK   17  A    between atoms: N_38  and  C_39
REMARK   18  A    between atoms: C_39  and  C_40
REMARK   19  A    between atoms: C_39  and  C_42
REMARK   20  A    between atoms: C_42  and  C_43
REMARK   21  A    between atoms: C_43  and  C_44
REMARK   22  A    between atoms: C_44  and  N_45
REMARK   23  A    between atoms: C_49  and  C_52
REMARK   24  A    between atoms: N_50  and  C_52
REMARK   25  A    between atoms: C_52  and  C_53
REMARK   26  A    between atoms: C_53  and  C_56
REMARK   27  A    between atoms: C_54  and  C_55
REMARK   28  A    between atoms: C_54  and  C_56
REMARK   29  A    between atoms: C_55  and  N_57
REMARK   30  A    between atoms: N_58  and  C_59
REMARK   31  A    between atoms: C_59  and  C_60
REMARK   32  A    between atoms: C_59  and  C_62
REMARK   33  A    between atoms: C_62  and  C_63
REMARK   34  A    between atoms: C_63  and  C_64
REMARK   35  A    between atoms: C_64  and  C_65
REMARK   36  A    between atoms: C_65  and  N_66
REMARK   37  A    between atoms: N_67  and  C_68
REMARK   38  A    between atoms: C_68  and  C_69
REMARK   39  A    between atoms: C_72  and  C_73
REMARK                            x       y       z     vdW  Elec       q    Type
REMARK                         _______ _______ _______ _____ _____    ______ ____
ROOT
ATOM      1  C   UNL     1      45.013 -39.316  -9.506  0.00  0.00    +0.159 C 
ENDROOT
BRANCH   1   2
ATOM      2  C   UNL     1      45.095 -40.262 -10.734  0.00  0.00    +0.234 C 
ATOM      3  N   UNL     1      46.263 -40.908 -10.908  0.00  0.00    -0.302 N 
ATOM      4  H   UNL     1      46.313 -41.644 -11.612  0.00  0.00    +0.150 HD
ATOM      5  O   UNL     1      44.147 -40.370 -11.511  0.00  0.00    -0.274 OA
BRANCH   3   6
ATOM      6  C   UNL     1      47.479 -40.595 -10.120  0.00  0.00    +0.159 C 
BRANCH   6   7
ATOM      7  C   UNL     1      48.552 -39.926 -10.997  0.00  0.00    +0.234 C 
ATOM      8  N   UNL     1      49.739 -40.576 -11.063  0.00  0.00    -0.302 N 
ATOM      9  H   UNL     1      49.808 -41.387 -11.677  0.00  0.00    +0.150 HD
ATOM     10  O   UNL     1      48.304 -38.876 -11.599  0.00  0.00    -0.274 OA
BRANCH   8  11
ATOM     11  C   UNL     1      50.932 -40.179 -10.299  0.00  0.00    +0.159 C 
BRANCH  11  12
ATOM     12  C   UNL     1      51.825 -39.437 -11.297  0.00  0.00    +0.234 C 
ATOM     13  N   UNL     1      52.084 -38.139 -11.051  0.00  0.00    -0.310 N 
ATOM     14  H   UNL     1      51.347 -37.449 -11.199  0.00  0.00    +0.149 HD
ATOM     15  O   UNL     1      52.232 -40.027 -12.289  0.00  0.00    -0.274 OA
BRANCH  13  16
ATOM     16  C   UNL     1      53.405 -37.684 -10.569  0.00  0.00    +0.139 C 
BRANCH  16  17
ATOM     17  C   UNL     1      53.298 -37.458  -9.143  0.00  0.00    -0.030 A 
ATOM     18  C   UNL     1      52.098 -37.073  -8.538  0.00  0.00    +0.006 A 
ATOM     19  C   UNL     1      52.012 -36.864  -7.143  0.00  0.00    +0.016 A 
ATOM     20  C   UNL     1      53.113 -37.044  -6.303  0.00  0.00    +0.065 A 
ATOM     21  C   UNL     1      54.310 -37.437  -6.911  0.00  0.00    +0.016 A 
ATOM     22  C   UNL     1      54.389 -37.630  -8.303  0.00  0.00    +0.006 A 
BRANCH  20  23
ATOM     23  C   UNL     1      53.022 -36.836  -4.907  0.00  0.00    +0.308 C 
ATOM     24  N   UNL     1      54.134 -36.902  -4.161  0.00  0.00    -0.099 NA
ATOM     25  H   UNL     1      55.032 -37.100  -4.602  0.00  0.00    +0.363 HD
ATOM     26  N   UNL     1      51.819 -36.617  -4.348  0.00  0.00    -0.247 N 
ATOM     27  H   UNL     1      51.283 -37.398  -3.970  0.00  0.00    +0.288 HD
ATOM     28  H   UNL     1      51.442 -35.671  -4.304  0.00  0.00    +0.288 HD
ENDBRANCH  20  23
ENDBRANCH  16  17
ENDBRANCH  13  16
ENDBRANCH  11  12
BRANCH  11  29
ATOM     29  C   UNL     1      51.691 -41.428  -9.785  0.00  0.00    +0.032 C 
BRANCH  29  30
ATOM     30  C   UNL     1      52.781 -41.042  -8.786  0.00  0.00    +0.007 C 
BRANCH  30  31
ATOM     31  C   UNL     1      54.195 -41.382  -9.343  0.00  0.00    +0.051 C 
BRANCH  31  32
ATOM     32  C   UNL     1      54.574 -42.797  -8.876  0.00  0.00    +0.127 C 
BRANCH  32  33
ATOM     33  N   UNL     1      55.877 -42.852  -8.184  0.00  0.00    +0.219 N 
ATOM     34  H   UNL     1      56.268 -41.911  -8.123  0.00  0.00    +0.199 HD
ATOM     35  H   UNL     1      56.513 -43.453  -8.707  0.00  0.00    +0.199 HD
ATOM     36  H   UNL     1      55.747 -43.228  -7.245  0.00  0.00    +0.199 HD
ENDBRANCH  32  33
ENDBRANCH  31  32
ENDBRANCH  30  31
ENDBRANCH  29  30
ENDBRANCH  11  29
ENDBRANCH   8  11
ENDBRANCH   6   7
BRANCH   6  37
ATOM     37  C   UNL     1      48.054 -41.936  -9.622  0.00  0.00    +0.032 C 
BRANCH  37  38
ATOM     38  C   UNL     1      48.379 -41.914  -8.114  0.00  0.00    +0.007 C 
BRANCH  38  39
ATOM     39  C   UNL     1      47.573 -40.794  -7.419  0.00  0.00    +0.051 C 
BRANCH  39  40
ATOM     40  C   UNL     1      48.433 -40.074  -6.363  0.00  0.00    +0.127 C 
BRANCH  40  41
ATOM     41  N   UNL     1      49.157 -38.926  -6.944  0.00  0.00    +0.219 N 
ATOM     42  H   UNL     1      50.016 -39.254  -7.384  0.00  0.00    +0.199 HD
ATOM     43  H   UNL     1      49.385 -38.260  -6.205  0.00  0.00    +0.199 HD
ATOM     44  H   UNL     1      48.568 -38.472  -7.642  0.00  0.00    +0.199 HD
ENDBRANCH  40  41
ENDBRANCH  39  40
ENDBRANCH  38  39
ENDBRANCH  37  38
ENDBRANCH   6  37
ENDBRANCH   3   6
ENDBRANCH   1   2
BRANCH   1  46
ATOM     45  C   UNL     1      45.359 -37.368 -11.015  0.00  0.00    +0.234 C 
ATOM     46  N   UNL     1      44.725 -37.936  -9.960  0.00  0.00    -0.302 N 
ATOM     47  H   UNL     1      44.024 -37.391  -9.458  0.00  0.00    +0.150 HD
ATOM     48  O   UNL     1      45.480 -37.930 -12.105  0.00  0.00    -0.274 OA
BRANCH  45  49
ATOM     49  C   UNL     1      45.968 -35.957 -10.790  0.00  0.00    +0.159 C 
BRANCH  49  51
ATOM     50  C   UNL     1      47.817 -36.175  -9.165  0.00  0.00    +0.234 C 
ATOM     51  N   UNL     1      47.400 -36.065 -10.439  0.00  0.00    -0.302 N 
ATOM     52  H   UNL     1      48.093 -36.055 -11.187  0.00  0.00    +0.150 HD
ATOM     53  O   UNL     1      47.327 -36.966  -8.358  0.00  0.00    -0.274 OA
BRANCH  50  54
ATOM     54  C   UNL     1      48.990 -35.251  -8.781  0.00  0.00    +0.159 C 
BRANCH  54  56
ATOM     55  C   UNL     1      50.355 -34.823 -10.798  0.00  0.00    +0.262 C 
ATOM     56  N   UNL     1      49.423 -34.407  -9.915  0.00  0.00    -0.299 N 
ATOM     57  H   UNL     1      49.005 -33.484 -10.034  0.00  0.00    +0.150 HD
ATOM     58  O   UNL     1      50.263 -35.876 -11.431  0.00  0.00    -0.270 OA
BRANCH  55  59
ATOM     59  C   UNL     1      51.589 -33.905 -10.995  0.00  0.00    +0.152 C 
BRANCH  59  60
ATOM     60  N   UNL     1      51.339 -32.850 -11.999  0.00  0.00    +0.228 N 
ATOM     61  H   UNL     1      52.228 -32.541 -12.393  0.00  0.00    +0.200 HD
ATOM     62  H   UNL     1      50.870 -32.062 -11.554  0.00  0.00    +0.200 HD
ATOM     63  H   UNL     1      50.749 -33.223 -12.743  0.00  0.00    +0.200 HD
ENDBRANCH  59  60
BRANCH  59  64
ATOM     64  C   UNL     1      51.994 -33.301  -9.642  0.00  0.00    +0.099 C 
BRANCH  64  65
ATOM     65  C   UNL     1      53.303 -33.657  -9.317  0.00  0.00    -0.034 A 
ATOM     66  C   UNL     1      53.716 -33.609  -7.990  0.00  0.00    -0.014 A 
ATOM     67  C   UNL     1      52.828 -33.207  -6.999  0.00  0.00    +0.009 A 
ATOM     68  C   UNL     1      53.239 -33.158  -5.673  0.00  0.00    +0.001 A 
ATOM     69  C   UNL     1      54.542 -33.513  -5.338  0.00  0.00    +0.001 A 
ATOM     70  C   UNL     1      55.430 -33.915  -6.327  0.00  0.00    +0.008 A 
ATOM     71  C   UNL     1      55.018 -33.963  -7.654  0.00  0.00    -0.018 A 
ATOM     72  C   UNL     1      55.907 -34.367  -8.643  0.00  0.00    +0.008 A 
ATOM     73  C   UNL     1      55.497 -34.416  -9.969  0.00  0.00    +0.001 A 
ATOM     74  C   UNL     1      54.196 -34.062 -10.305  0.00  0.00    +0.004 A 
ENDBRANCH  64  65
ENDBRANCH  59  64
ENDBRANCH  55  59
ENDBRANCH  54  56
BRANCH  54  75
ATOM     75  C   UNL     1      48.589 -34.364  -7.593  0.00  0.00    +0.035 C 
BRANCH  75  76
ATOM     76  C   UNL     1      49.722 -34.396  -6.560  0.00  0.00    +0.039 C 
BRANCH  76  77
ATOM     77  C   UNL     1      49.462 -33.401  -5.421  0.00  0.00    +0.196 C 
BRANCH  77  78
ATOM     78  N   UNL     1      49.463 -34.044  -4.083  0.00  0.00    -0.276 N 
ATOM     79  H   UNL     1      48.767 -34.776  -3.937  0.00  0.00    +0.258 HD
ATOM     80  C   UNL     1      50.278 -33.775  -3.029  0.00  0.00    +0.376 C 
ATOM     81  N   UNL     1      50.925 -32.600  -2.903  0.00  0.00    -0.289 N 
ATOM     82  H   UNL     1      51.452 -32.221  -3.690  0.00  0.00    +0.255 HD
ATOM     83  H   UNL     1      50.890 -32.089  -2.021  0.00  0.00    +0.255 HD
ATOM     84  N   UNL     1      50.451 -34.705  -2.079  0.00  0.00    -0.130 NA
ATOM     85  H   UNL     1      49.973 -35.604  -2.154  0.00  0.00    +0.306 HD
ENDBRANCH  77  78
ENDBRANCH  76  77
ENDBRANCH  75  76
ENDBRANCH  54  75
ENDBRANCH  50  54
ENDBRANCH  49  51
BRANCH  49  86
ATOM     86  C   UNL     1      45.818 -35.058 -12.036  0.00  0.00    +0.035 C 
BRANCH  86  87
ATOM     87  C   UNL     1      47.155 -34.941 -12.825  0.00  0.00    +0.039 C 
BRANCH  87  88
ATOM     88  C   UNL     1      46.924 -35.396 -14.274  0.00  0.00    +0.196 C 
BRANCH  88  89
ATOM     89  N   UNL     1      47.332 -34.384 -15.270  0.00  0.00    -0.276 N 
ATOM     90  H   UNL     1      46.712 -34.216 -16.062  0.00  0.00    +0.258 HD
ATOM     91  C   UNL     1      48.477 -33.672 -15.195  0.00  0.00    +0.376 C 
ATOM     92  N   UNL     1      49.671 -34.267 -15.465  0.00  0.00    -0.289 N 
ATOM     93  H   UNL     1      50.283 -33.877 -16.182  0.00  0.00    +0.255 HD
ATOM     94  H   UNL     1      49.953 -35.101 -14.952  0.00  0.00    +0.255 HD
ATOM     95  N   UNL     1      48.421 -32.371 -14.834  0.00  0.00    -0.130 NA
ATOM     96  H   UNL     1      47.522 -31.938 -14.622  0.00  0.00    +0.306 HD
ENDBRANCH  88  89
ENDBRANCH  87  88
ENDBRANCH  86  87
ENDBRANCH  49  86
ENDBRANCH  45  49
ENDBRANCH   1  46
BRANCH   1  97
ATOM     97  C   UNL     1      43.941 -39.762  -8.483  0.00  0.00    +0.035 C 
BRANCH  97  98
ATOM     98  C   UNL     1      44.231 -39.164  -7.079  0.00  0.00    +0.039 C 
BRANCH  98  99
ATOM     99  C   UNL     1      44.298 -40.297  -6.041  0.00  0.00    +0.196 C 
BRANCH  99 100
ATOM    100  N   UNL     1      45.089 -39.931  -4.847  0.00  0.00    -0.276 N 
ATOM    101  H   UNL     1      46.085 -39.742  -4.966  0.00  0.00    +0.258 HD
ATOM    102  C   UNL     1      44.559 -39.833  -3.603  0.00  0.00    +0.376 C 
ATOM    103  N   UNL     1      44.868 -40.747  -2.672  0.00  0.00    -0.130 NA
ATOM    104  H   UNL     1      45.501 -41.513  -2.900  0.00  0.00    +0.306 HD
ATOM    105  N   UNL     1      43.707 -38.833  -3.285  0.00  0.00    -0.289 N 
ATOM    106  H   UNL     1      43.252 -38.297  -4.024  0.00  0.00    +0.255 HD
ATOM    107  H   UNL     1      43.519 -38.615  -2.307  0.00  0.00    +0.255 HD
ENDBRANCH  99 100
ENDBRANCH  98  99
ENDBRANCH  97  98
ENDBRANCH   1  97
TORSDOF 39
ENDMDL
MODEL 4
REMARK VINA RESULT:    -7.831      2.812      9.185
REMARK INTER + INTRA:         -33.110
REMARK INTER:                 -24.270
REMARK INTRA:                  -8.841
REMARK UNBOUND:                -8.113
REMARK  Name = 6hld_ligand
REMARK  39 active torsions:
REMARK  status: ('A' for Active; 'I' for Inactive)
REMARK    1  A    between atoms: N_1  and  C_2
REMARK    2  A    between atoms: C_2  and  C_3
REMARK    3  A    between atoms: C_2  and  C_5
REMARK    4  A    between atoms: C_5  and  C_6
REMARK    5  A    between atoms: N_16  and  C_17
REMARK    6  A    between atoms: C_17  and  C_18
REMARK    7  A    between atoms: C_17  and  C_20
REMARK    8  A    between atoms: C_20  and  C_21
REMARK    9  A    between atoms: C_21  and  C_22
REMARK   10  A    between atoms: C_22  and  N_23
REMARK   11  A    between atoms: N_27  and  C_28
REMARK   12  A    between atoms: C_28  and  C_29
REMARK   13  A    between atoms: C_28  and  C_31
REMARK   14  A    between atoms: C_31  and  C_32
REMARK   15  A    between atoms: C_32  and  C_33
REMARK   16  A    between atoms: C_33  and  N_34
REMARK   17  A    between atoms: N_38  and  C_39
REMARK   18  A    between atoms: C_39  and  C_40
REMARK   19  A    between atoms: C_39  and  C_42
REMARK   20  A    between atoms: C_42  and  C_43
REMARK   21  A    between atoms: C_43  and  C_44
REMARK   22  A    between atoms: C_44  and  N_45
REMARK   23  A    between atoms: C_49  and  C_52
REMARK   24  A    between atoms: N_50  and  C_52
REMARK   25  A    between atoms: C_52  and  C_53
REMARK   26  A    between atoms: C_53  and  C_56
REMARK   27  A    between atoms: C_54  and  C_55
REMARK   28  A    between atoms: C_54  and  C_56
REMARK   29  A    between atoms: C_55  and  N_57
REMARK   30  A    between atoms: N_58  and  C_59
REMARK   31  A    between atoms: C_59  and  C_60
REMARK   32  A    between atoms: C_59  and  C_62
REMARK   33  A    between atoms: C_62  and  C_63
REMARK   34  A    between atoms: C_63  and  C_64
REMARK   35  A    between atoms: C_64  and  C_65
REMARK   36  A    between atoms: C_65  and  N_66
REMARK   37  A    between atoms: N_67  and  C_68
REMARK   38  A    between atoms: C_68  and  C_69
REMARK   39  A    between atoms: C_72  and  C_73
REMARK                            x       y       z     vdW  Elec       q    Type
REMARK                         _______ _______ _______ _____ _____    ______ ____
ROOT
ATOM      1  C   UNL     1      49.482 -34.920  -9.237  0.00  0.00    +0.159 C 
ENDROOT
BRANCH   1   2
ATOM      2  C   UNL     1      49.818 -36.128 -10.154  0.00  0.00    +0.234 C 
ATOM      3  N   UNL     1      48.923 -36.406 -11.120  0.00  0.00    -0.302 N 
ATOM      4  H   UNL     1      49.171 -37.094 -11.831  0.00  0.00    +0.150 HD
ATOM      5  O   UNL     1      50.831 -36.800  -9.965  0.00  0.00    -0.274 OA
BRANCH   3   6
ATOM      6  C   UNL     1      47.593 -35.756 -11.194  0.00  0.00    +0.159 C 
BRANCH   6   7
ATOM      7  C   UNL     1      46.469 -36.752 -10.855  0.00  0.00    +0.234 C 
ATOM      8  N   UNL     1      46.844 -37.824 -10.118  0.00  0.00    -0.302 N 
ATOM      9  H   UNL     1      46.970 -37.696  -9.114  0.00  0.00    +0.150 HD
ATOM     10  O   UNL     1      45.311 -36.543 -11.233  0.00  0.00    -0.274 OA
BRANCH   8  11
ATOM     11  C   UNL     1      47.081 -39.163 -10.682  0.00  0.00    +0.159 C 
BRANCH  11  12
ATOM     12  C   UNL     1      45.722 -39.866 -10.641  0.00  0.00    +0.234 C 
ATOM     13  N   UNL     1      45.171 -40.084  -9.431  0.00  0.00    -0.310 N 
ATOM     14  H   UNL     1      45.564 -40.811  -8.832  0.00  0.00    +0.149 HD
ATOM     15  O   UNL     1      45.209 -40.237 -11.689  0.00  0.00    -0.274 OA
BRANCH  13  16
ATOM     16  C   UNL     1      44.018 -39.299  -8.945  0.00  0.00    +0.139 C 
BRANCH  16  17
ATOM     17  C   UNL     1      44.038 -39.340  -7.499  0.00  0.00    -0.030 A 
ATOM     18  C   UNL     1      42.888 -39.140  -6.731  0.00  0.00    +0.006 A 
ATOM     19  C   UNL     1      42.927 -39.191  -5.319  0.00  0.00    +0.016 A 
ATOM     20  C   UNL     1      44.111 -39.454  -4.626  0.00  0.00    +0.065 A 
ATOM     21  C   UNL     1      45.258 -39.661  -5.397  0.00  0.00    +0.016 A 
ATOM     22  C   UNL     1      45.212 -39.596  -6.802  0.00  0.00    +0.006 A 
BRANCH  20  23
ATOM     23  C   UNL     1      44.145 -39.506  -3.213  0.00  0.00    +0.308 C 
ATOM     24  N   UNL     1      43.644 -38.483  -2.507  0.00  0.00    -0.099 NA
ATOM     25  H   UNL     1      43.245 -37.678  -2.990  0.00  0.00    +0.363 HD
ATOM     26  N   UNL     1      44.716 -40.561  -2.604  0.00  0.00    -0.247 N 
ATOM     27  H   UNL     1      45.698 -40.523  -2.332  0.00  0.00    +0.288 HD
ATOM     28  H   UNL     1      44.166 -41.399  -2.414  0.00  0.00    +0.288 HD
ENDBRANCH  20  23
ENDBRANCH  16  17
ENDBRANCH  13  16
ENDBRANCH  11  12
BRANCH  11  29
ATOM     29  C   UNL     1      48.078 -39.956  -9.803  0.00  0.00    +0.032 C 
BRANCH  29  30
ATOM     30  C   UNL     1      48.459 -39.170  -8.549  0.00  0.00    +0.007 C 
BRANCH  30  31
ATOM     31  C   UNL     1      49.039 -40.113  -7.453  0.00  0.00    +0.051 C 
BRANCH  31  32
ATOM     32  C   UNL     1      49.723 -41.302  -8.146  0.00  0.00    +0.127 C 
BRANCH  32  33
ATOM     33  N   UNL     1      50.900 -41.805  -7.412  0.00  0.00    +0.219 N 
ATOM     34  H   UNL     1      51.741 -41.347  -7.765  0.00  0.00    +0.199 HD
ATOM     35  H   UNL     1      50.978 -42.813  -7.547  0.00  0.00    +0.199 HD
ATOM     36  H   UNL     1      50.793 -41.602  -6.419  0.00  0.00    +0.199 HD
ENDBRANCH  32  33
ENDBRANCH  31  32
ENDBRANCH  30  31
ENDBRANCH  29  30
ENDBRANCH  11  29
ENDBRANCH   8  11
ENDBRANCH   6   7
BRANCH   6  37
ATOM     37  C   UNL     1      47.390 -35.304 -12.653  0.00  0.00    +0.032 C 
BRANCH  37  38
ATOM     38  C   UNL     1      47.628 -33.791 -12.840  0.00  0.00    +0.007 C 
BRANCH  38  39
ATOM     39  C   UNL     1      49.003 -33.553 -13.503  0.00  0.00    +0.051 C 
BRANCH  39  40
ATOM     40  C   UNL     1      48.890 -32.526 -14.646  0.00  0.00    +0.127 C 
BRANCH  40  41
ATOM     41  N   UNL     1      49.588 -31.268 -14.316  0.00  0.00    +0.219 N 
ATOM     42  H   UNL     1      50.358 -31.465 -13.677  0.00  0.00    +0.199 HD
ATOM     43  H   UNL     1      48.934 -30.623 -13.874  0.00  0.00    +0.199 HD
ATOM     44  H   UNL     1      49.953 -30.849 -15.171  0.00  0.00    +0.199 HD
ENDBRANCH  40  41
ENDBRANCH  39  40
ENDBRANCH  38  39
ENDBRANCH  37  38
ENDBRANCH   6  37
ENDBRANCH   3   6
ENDBRANCH   1   2
BRANCH   1  46
ATOM     45  C   UNL     1      49.559 -34.635  -6.767  0.00  0.00    +0.234 C 
ATOM     46  N   UNL     1      50.108 -35.115  -7.909  0.00  0.00    -0.302 N 
ATOM     47  H   UNL     1      50.988 -35.627  -7.852  0.00  0.00    +0.150 HD
ATOM     48  O   UNL     1      48.374 -34.805  -6.470  0.00  0.00    -0.274 OA
BRANCH  45  49
ATOM     49  C   UNL     1      50.490 -33.819  -5.829  0.00  0.00    +0.159 C 
BRANCH  49  51
ATOM     50  C   UNL     1      50.355 -34.201  -3.391  0.00  0.00    +0.234 C 
ATOM     51  N   UNL     1      50.789 -34.588  -4.604  0.00  0.00    -0.302 N 
ATOM     52  H   UNL     1      51.343 -35.441  -4.681  0.00  0.00    +0.150 HD
ATOM     53  O   UNL     1      49.194 -33.860  -3.164  0.00  0.00    -0.274 OA
BRANCH  50  54
ATOM     54  C   UNL     1      51.419 -34.237  -2.276  0.00  0.00    +0.159 C 
BRANCH  54  56
ATOM     55  C   UNL     1      53.009 -36.103  -2.606  0.00  0.00    +0.262 C 
ATOM     56  N   UNL     1      52.702 -34.797  -2.753  0.00  0.00    -0.299 N 
ATOM     57  H   UNL     1      53.374 -34.178  -3.207  0.00  0.00    +0.150 HD
ATOM     58  O   UNL     1      52.291 -37.016  -3.020  0.00  0.00    -0.270 OA
BRANCH  55  59
ATOM     59  C   UNL     1      54.334 -36.431  -1.871  0.00  0.00    +0.152 C 
BRANCH  59  60
ATOM     60  N   UNL     1      54.591 -37.885  -1.815  0.00  0.00    +0.228 N 
ATOM     61  H   UNL     1      55.538 -38.048  -1.476  0.00  0.00    +0.200 HD
ATOM     62  H   UNL     1      54.488 -38.283  -2.748  0.00  0.00    +0.200 HD
ATOM     63  H   UNL     1      53.922 -38.323  -1.181  0.00  0.00    +0.200 HD
ENDBRANCH  59  60
BRANCH  59  64
ATOM     64  C   UNL     1      55.491 -35.687  -2.554  0.00  0.00    +0.099 C 
BRANCH  64  65
ATOM     65  C   UNL     1      55.860 -34.566  -1.811  0.00  0.00    -0.034 A 
ATOM     66  C   UNL     1      56.043 -33.347  -2.456  0.00  0.00    -0.014 A 
ATOM     67  C   UNL     1      55.860 -33.253  -3.831  0.00  0.00    +0.009 A 
ATOM     68  C   UNL     1      56.043 -32.037  -4.477  0.00  0.00    +0.001 A 
ATOM     69  C   UNL     1      56.409 -30.912  -3.746  0.00  0.00    +0.001 A 
ATOM     70  C   UNL     1      56.592 -31.005  -2.372  0.00  0.00    +0.008 A 
ATOM     71  C   UNL     1      56.409 -32.222  -1.726  0.00  0.00    -0.018 A 
ATOM     72  C   UNL     1      56.591 -32.313  -0.351  0.00  0.00    +0.008 A 
ATOM     73  C   UNL     1      56.409 -33.529   0.295  0.00  0.00    +0.001 A 
ATOM     74  C   UNL     1      56.043 -34.653  -0.434  0.00  0.00    +0.004 A 
ENDBRANCH  64  65
ENDBRANCH  59  64
ENDBRANCH  55  59
ENDBRANCH  54  56
BRANCH  54  75
ATOM     75  C   UNL     1      51.642 -32.824  -1.718  0.00  0.00    +0.035 C 
BRANCH  75  76
ATOM     76  C   UNL     1      52.747 -32.889  -0.658  0.00  0.00    +0.039 C 
BRANCH  76  77
ATOM     77  C   UNL     1      52.156 -32.910   0.759  0.00  0.00    +0.196 C 
BRANCH  77  78
ATOM     78  N   UNL     1      51.294 -31.736   1.040  0.00  0.00    -0.276 N 
ATOM     79  H   UNL     1      50.341 -31.782   0.678  0.00  0.00    +0.258 HD
ATOM     80  C   UNL     1      51.621 -30.606   1.723  0.00  0.00    +0.376 C 
ATOM     81  N   UNL     1      52.897 -30.206   1.881  0.00  0.00    -0.289 N 
ATOM     82  H   UNL     1      53.603 -30.869   2.202  0.00  0.00    +0.255 HD
ATOM     83  H   UNL     1      53.159 -29.241   1.679  0.00  0.00    +0.255 HD
ATOM     84  N   UNL     1      50.646 -29.860   2.262  0.00  0.00    -0.130 NA
ATOM     85  H   UNL     1      49.671 -30.144   2.158  0.00  0.00    +0.306 HD
ENDBRANCH  77  78
ENDBRANCH  76  77
ENDBRANCH  75  76
ENDBRANCH  54  75
ENDBRANCH  50  54
ENDBRANCH  49  51
BRANCH  49  86
ATOM     86  C   UNL     1      51.813 -33.434  -6.522  0.00  0.00    +0.035 C 
BRANCH  86  87
ATOM     87  C   UNL     1      53.026 -34.191  -5.907  0.00  0.00    +0.039 C 
BRANCH  87  88
ATOM     88  C   UNL     1      53.383 -35.383  -6.806  0.00  0.00    +0.196 C 
BRANCH  88  89
ATOM     89  N   UNL     1      53.134 -36.689  -6.163  0.00  0.00    -0.276 N 
ATOM     90  H   UNL     1      53.774 -36.990  -5.428  0.00  0.00    +0.258 HD
ATOM     91  C   UNL     1      52.112 -37.507  -6.490  0.00  0.00    +0.376 C 
ATOM     92  N   UNL     1      52.142 -38.208  -7.657  0.00  0.00    -0.289 N 
ATOM     93  H   UNL     1      52.046 -39.223  -7.644  0.00  0.00    +0.255 HD
ATOM     94  H   UNL     1      52.261 -37.717  -8.542  0.00  0.00    +0.255 HD
ATOM     95  N   UNL     1      51.054 -37.608  -5.653  0.00  0.00    -0.130 NA
ATOM     96  H   UNL     1      51.036 -37.070  -4.787  0.00  0.00    +0.306 HD
ENDBRANCH  88  89
ENDBRANCH  87  88
ENDBRANCH  86  87
ENDBRANCH  49  86
ENDBRANCH  45  49
ENDBRANCH   1  46
BRANCH   1  97
ATOM     97  C   UNL     1      49.943 -33.572  -9.839  0.00  0.00    +0.035 C 
BRANCH  97  98
ATOM     98  C   UNL     1      51.337 -33.711 -10.508  0.00  0.00    +0.039 C 
BRANCH  98  99
ATOM     99  C   UNL     1      52.313 -32.703  -9.879  0.00  0.00    +0.196 C 
BRANCH  99 100
ATOM    100  N   UNL     1      53.002 -31.869 -10.887  0.00  0.00    -0.276 N 
ATOM    101  H   UNL     1      53.313 -30.937 -10.612  0.00  0.00    +0.258 HD
ATOM    102  C   UNL     1      53.241 -32.280 -12.156  0.00  0.00    +0.376 C 
ATOM    103  N   UNL     1      52.565 -31.728 -13.175  0.00  0.00    -0.130 NA
ATOM    104  H   UNL     1      51.874 -31.000 -12.994  0.00  0.00    +0.306 HD
ATOM    105  N   UNL     1      54.142 -33.253 -12.416  0.00  0.00    -0.289 N 
ATOM    106  H   UNL     1      54.463 -33.864 -11.666  0.00  0.00    +0.255 HD
ATOM    107  H   UNL     1      54.501 -33.376 -13.363  0.00  0.00    +0.255 HD
ENDBRANCH  99 100
ENDBRANCH  98  99
ENDBRANCH  97  98
ENDBRANCH   1  97
TORSDOF 39
ENDMDL
MODEL 5
REMARK VINA RESULT:    -7.746      2.789      9.551
REMARK INTER + INTRA:         -32.841
REMARK INTER:                 -24.728
REMARK INTRA:                  -8.113
REMARK UNBOUND:                -8.113
REMARK  Name = 6hld_ligand
REMARK  39 active torsions:
REMARK  status: ('A' for Active; 'I' for Inactive)
REMARK    1  A    between atoms: N_1  and  C_2
REMARK    2  A    between atoms: C_2  and  C_3
REMARK    3  A    between atoms: C_2  and  C_5
REMARK    4  A    between atoms: C_5  and  C_6
REMARK    5  A    between atoms: N_16  and  C_17
REMARK    6  A    between atoms: C_17  and  C_18
REMARK    7  A    between atoms: C_17  and  C_20
REMARK    8  A    between atoms: C_20  and  C_21
REMARK    9  A    between atoms: C_21  and  C_22
REMARK   10  A    between atoms: C_22  and  N_23
REMARK   11  A    between atoms: N_27  and  C_28
REMARK   12  A    between atoms: C_28  and  C_29
REMARK   13  A    between atoms: C_28  and  C_31
REMARK   14  A    between atoms: C_31  and  C_32
REMARK   15  A    between atoms: C_32  and  C_33
REMARK   16  A    between atoms: C_33  and  N_34
REMARK   17  A    between atoms: N_38  and  C_39
REMARK   18  A    between atoms: C_39  and  C_40
REMARK   19  A    between atoms: C_39  and  C_42
REMARK   20  A    between atoms: C_42  and  C_43
REMARK   21  A    between atoms: C_43  and  C_44
REMARK   22  A    between atoms: C_44  and  N_45
REMARK   23  A    between atoms: C_49  and  C_52
REMARK   24  A    between atoms: N_50  and  C_52
REMARK   25  A    between atoms: C_52  and  C_53
REMARK   26  A    between atoms: C_53  and  C_56
REMARK   27  A    between atoms: C_54  and  C_55
REMARK   28  A    between atoms: C_54  and  C_56
REMARK   29  A    between atoms: C_55  and  N_57
REMARK   30  A    between atoms: N_58  and  C_59
REMARK   31  A    between atoms: C_59  and  C_60
REMARK   32  A    between atoms: C_59  and  C_62
REMARK   33  A    between atoms: C_62  and  C_63
REMARK   34  A    between atoms: C_63  and  C_64
REMARK   35  A    between atoms: C_64  and  C_65
REMARK   36  A    between atoms: C_65  and  N_66
REMARK   37  A    between atoms: N_67  and  C_68
REMARK   38  A    between atoms: C_68  and  C_69
REMARK   39  A    between atoms: C_72  and  C_73
REMARK                            x       y       z     vdW  Elec       q    Type
REMARK                         _______ _______ _______ _____ _____    ______ ____
ROOT
ATOM      1  C   UNL     1      50.016 -34.294  -9.259  0.00  0.00    +0.159 C 
ENDROOT
BRANCH   1   2
ATOM      2  C   UNL     1      50.292 -35.316 -10.395  0.00  0.00    +0.234 C 
ATOM      3  N   UNL     1      49.279 -35.536 -11.254  0.00  0.00    -0.302 N 
ATOM      4  H   UNL     1      49.462 -36.084 -12.093  0.00  0.00    +0.150 HD
ATOM      5  O   UNL     1      51.369 -35.906 -10.464  0.00  0.00    -0.274 OA
BRANCH   3   6
ATOM      6  C   UNL     1      47.909 -35.014 -11.030  0.00  0.00    +0.159 C 
BRANCH   6   7
ATOM      7  C   UNL     1      46.962 -36.130 -10.553  0.00  0.00    +0.234 C 
ATOM      8  N   UNL     1      47.525 -37.069  -9.756  0.00  0.00    -0.302 N 
ATOM      9  H   UNL     1      47.674 -36.839  -8.774  0.00  0.00    +0.150 HD
ATOM     10  O   UNL     1      45.771 -36.124 -10.881  0.00  0.00    -0.274 OA
BRANCH   8  11
ATOM     11  C   UNL     1      47.933 -38.403 -10.226  0.00  0.00    +0.159 C 
BRANCH  11  12
ATOM     12  C   UNL     1      46.628 -39.147 -10.521  0.00  0.00    +0.234 C 
ATOM     13  N   UNL     1      45.967 -39.678  -9.476  0.00  0.00    -0.310 N 
ATOM     14  H   UNL     1      46.340 -40.515  -9.027  0.00  0.00    +0.149 HD
ATOM     15  O   UNL     1      46.257 -39.266 -11.682  0.00  0.00    -0.274 OA
BRANCH  13  16
ATOM     16  C   UNL     1      44.717 -39.084  -8.957  0.00  0.00    +0.139 C 
BRANCH  16  17
ATOM     17  C   UNL     1      44.700 -39.281  -7.524  0.00  0.00    -0.030 A 
ATOM     18  C   UNL     1      45.869 -39.473  -6.783  0.00  0.00    +0.006 A 
ATOM     19  C   UNL     1      45.832 -39.657  -5.382  0.00  0.00    +0.016 A 
ATOM     20  C   UNL     1      44.630 -39.644  -4.671  0.00  0.00    +0.065 A 
ATOM     21  C   UNL     1      43.462 -39.443  -5.414  0.00  0.00    +0.016 A 
ATOM     22  C   UNL     1      43.509 -39.274  -6.811  0.00  0.00    +0.006 A 
BRANCH  20  23
ATOM     23  C   UNL     1      44.597 -39.826  -3.269  0.00  0.00    +0.308 C 
ATOM     24  N   UNL     1      43.484 -39.507  -2.593  0.00  0.00    -0.099 NA
ATOM     25  H   UNL     1      42.674 -39.138  -3.091  0.00  0.00    +0.363 HD
ATOM     26  N   UNL     1      45.694 -40.275  -2.634  0.00  0.00    -0.247 N 
ATOM     27  H   UNL     1      46.360 -39.613  -2.237  0.00  0.00    +0.288 HD
ATOM     28  H   UNL     1      45.860 -41.278  -2.552  0.00  0.00    +0.288 HD
ENDBRANCH  20  23
ENDBRANCH  16  17
ENDBRANCH  13  16
ENDBRANCH  11  12
BRANCH  11  29
ATOM     29  C   UNL     1      48.699 -39.162  -9.115  0.00  0.00    +0.032 C 
BRANCH  29  30
ATOM     30  C   UNL     1      49.145 -38.214  -8.003  0.00  0.00    +0.007 C 
BRANCH  30  31
ATOM     31  C   UNL     1      50.157 -38.912  -7.047  0.00  0.00    +0.051 C 
BRANCH  31  32
ATOM     32  C   UNL     1      51.404 -38.021  -6.924  0.00  0.00    +0.127 C 
BRANCH  32  33
ATOM     33  N   UNL     1      52.201 -37.962  -8.165  0.00  0.00    +0.219 N 
ATOM     34  H   UNL     1      52.990 -37.327  -8.031  0.00  0.00    +0.199 HD
ATOM     35  H   UNL     1      51.616 -37.622  -8.928  0.00  0.00    +0.199 HD
ATOM     36  H   UNL     1      52.549 -38.893  -8.389  0.00  0.00    +0.199 HD
ENDBRANCH  32  33
ENDBRANCH  31  32
ENDBRANCH  30  31
ENDBRANCH  29  30
ENDBRANCH  11  29
ENDBRANCH   8  11
ENDBRANCH   6   7
BRANCH   6  37
ATOM     37  C   UNL     1      47.388 -34.512 -12.391  0.00  0.00    +0.032 C 
BRANCH  37  38
ATOM     38  C   UNL     1      48.295 -33.423 -13.003  0.00  0.00    +0.007 C 
BRANCH  38  39
ATOM     39  C   UNL     1      48.273 -33.527 -14.544  0.00  0.00    +0.051 C 
BRANCH  39  40
ATOM     40  C   UNL     1      49.452 -32.751 -15.162  0.00  0.00    +0.127 C 
BRANCH  40  41
ATOM     41  N   UNL     1      49.576 -31.399 -14.582  0.00  0.00    +0.219 N 
ATOM     42  H   UNL     1      49.331 -30.704 -15.286  0.00  0.00    +0.199 HD
ATOM     43  H   UNL     1      50.537 -31.249 -14.274  0.00  0.00    +0.199 HD
ATOM     44  H   UNL     1      48.946 -31.313 -13.784  0.00  0.00    +0.199 HD
ENDBRANCH  40  41
ENDBRANCH  39  40
ENDBRANCH  38  39
ENDBRANCH  37  38
ENDBRANCH   6  37
ENDBRANCH   3   6
ENDBRANCH   1   2
BRANCH   1  46
ATOM     45  C   UNL     1      49.858 -34.642  -6.800  0.00  0.00    +0.234 C 
ATOM     46  N   UNL     1      50.511 -34.836  -7.972  0.00  0.00    -0.302 N 
ATOM     47  H   UNL     1      51.377 -35.373  -7.967  0.00  0.00    +0.150 HD
ATOM     48  O   UNL     1      48.650 -34.844  -6.665  0.00  0.00    -0.274 OA
BRANCH  45  49
ATOM     49  C   UNL     1      50.701 -34.117  -5.606  0.00  0.00    +0.159 C 
BRANCH  49  51
ATOM     50  C   UNL     1      50.160 -34.165  -3.195  0.00  0.00    +0.234 C 
ATOM     51  N   UNL     1      50.321 -34.816  -4.361  0.00  0.00    -0.302 N 
ATOM     52  H   UNL     1      50.176 -35.825  -4.387  0.00  0.00    +0.150 HD
ATOM     53  O   UNL     1      49.502 -33.130  -3.082  0.00  0.00    -0.274 OA
BRANCH  50  54
ATOM     54  C   UNL     1      50.843 -34.825  -1.980  0.00  0.00    +0.159 C 
BRANCH  54  56
ATOM     55  C   UNL     1      52.612 -36.442  -2.590  0.00  0.00    +0.262 C 
ATOM     56  N   UNL     1      52.250 -35.184  -2.264  0.00  0.00    -0.299 N 
ATOM     57  H   UNL     1      52.966 -34.460  -2.212  0.00  0.00    +0.150 HD
ATOM     58  O   UNL     1      52.112 -37.067  -3.527  0.00  0.00    -0.270 OA
BRANCH  55  59
ATOM     59  C   UNL     1      53.710 -37.102  -1.716  0.00  0.00    +0.152 C 
BRANCH  59  60
ATOM     60  N   UNL     1      53.134 -37.977  -0.674  0.00  0.00    +0.228 N 
ATOM     61  H   UNL     1      52.250 -38.362  -1.006  0.00  0.00    +0.200 HD
ATOM     62  H   UNL     1      52.974 -37.435   0.174  0.00  0.00    +0.200 HD
ATOM     63  H   UNL     1      53.784 -38.739  -0.474  0.00  0.00    +0.200 HD
ENDBRANCH  59  60
BRANCH  59  64
ATOM     64  C   UNL     1      54.682 -37.875  -2.619  0.00  0.00    +0.099 C 
BRANCH  64  65
ATOM     65  C   UNL     1      55.768 -37.075  -2.971  0.00  0.00    -0.034 A 
ATOM     66  C   UNL     1      55.917 -36.665  -4.292  0.00  0.00    -0.014 A 
ATOM     67  C   UNL     1      54.989 -37.056  -5.250  0.00  0.00    +0.009 A 
ATOM     68  C   UNL     1      55.137 -36.648  -6.570  0.00  0.00    +0.001 A 
ATOM     69  C   UNL     1      56.216 -35.847  -6.931  0.00  0.00    +0.001 A 
ATOM     70  C   UNL     1      57.144 -35.457  -5.974  0.00  0.00    +0.008 A 
ATOM     71  C   UNL     1      56.995 -35.865  -4.654  0.00  0.00    -0.018 A 
ATOM     72  C   UNL     1      57.924 -35.472  -3.696  0.00  0.00    +0.008 A 
ATOM     73  C   UNL     1      57.776 -35.879  -2.377  0.00  0.00    +0.001 A 
ATOM     74  C   UNL     1      56.699 -36.678  -2.015  0.00  0.00    +0.004 A 
ENDBRANCH  64  65
ENDBRANCH  59  64
ENDBRANCH  55  59
ENDBRANCH  54  56
BRANCH  54  75
ATOM     75  C   UNL     1      50.779 -33.883  -0.769  0.00  0.00    +0.035 C 
BRANCH  75  76
ATOM     76  C   UNL     1      52.194 -33.366  -0.481  0.00  0.00    +0.039 C 
BRANCH  76  77
ATOM     77  C   UNL     1      52.293 -32.778   0.933  0.00  0.00    +0.196 C 
BRANCH  77  78
ATOM     78  N   UNL     1      51.348 -31.657   1.158  0.00  0.00    -0.276 N 
ATOM     79  H   UNL     1      50.420 -31.762   0.745  0.00  0.00    +0.258 HD
ATOM     80  C   UNL     1      51.569 -30.505   1.847  0.00  0.00    +0.376 C 
ATOM     81  N   UNL     1      52.809 -30.027   2.069  0.00  0.00    -0.289 N 
ATOM     82  H   UNL     1      53.535 -30.644   2.434  0.00  0.00    +0.255 HD
ATOM     83  H   UNL     1      53.022 -29.049   1.874  0.00  0.00    +0.255 HD
ATOM     84  N   UNL     1      50.523 -29.816   2.326  0.00  0.00    -0.130 NA
ATOM     85  H   UNL     1      49.574 -30.160   2.172  0.00  0.00    +0.306 HD
ENDBRANCH  77  78
ENDBRANCH  76  77
ENDBRANCH  75  76
ENDBRANCH  54  75
ENDBRANCH  50  54
ENDBRANCH  49  51
BRANCH  49  86
ATOM     86  C   UNL     1      52.215 -34.296  -5.845  0.00  0.00    +0.035 C 
BRANCH  86  87
ATOM     87  C   UNL     1      53.015 -33.021  -5.447  0.00  0.00    +0.039 C 
BRANCH  87  88
ATOM     88  C   UNL     1      54.050 -33.392  -4.375  0.00  0.00    +0.196 C 
BRANCH  88  89
ATOM     89  N   UNL     1      55.363 -32.752  -4.591  0.00  0.00    -0.276 N 
ATOM     90  H   UNL     1      55.848 -32.939  -5.469  0.00  0.00    +0.258 HD
ATOM     91  C   UNL     1      55.960 -31.936  -3.697  0.00  0.00    +0.376 C 
ATOM     92  N   UNL     1      56.516 -32.450  -2.566  0.00  0.00    -0.289 N 
ATOM     93  H   UNL     1      57.497 -32.269  -2.352  0.00  0.00    +0.255 HD
ATOM     94  H   UNL     1      55.952 -33.016  -1.933  0.00  0.00    +0.255 HD
ATOM     95  N   UNL     1      55.983 -30.605  -3.932  0.00  0.00    -0.130 NA
ATOM     96  H   UNL     1      55.554 -30.228  -4.777  0.00  0.00    +0.306 HD
ENDBRANCH  88  89
ENDBRANCH  87  88
ENDBRANCH  86  87
ENDBRANCH  49  86
ENDBRANCH  45  49
ENDBRANCH   1  46
BRANCH   1  97
ATOM     97  C   UNL     1      50.666 -32.916  -9.529  0.00  0.00    +0.035 C 
BRANCH  97  98
ATOM     98  C   UNL     1      52.179 -32.939  -9.183  0.00  0.00    +0.039 C 
BRANCH  98  99
ATOM     99  C   UNL     1      53.004 -32.748 -10.468  0.00  0.00    +0.196 C 
BRANCH  99 100
ATOM    100  N   UNL     1      52.188 -32.874 -11.694  0.00  0.00    -0.276 N 
ATOM    101  H   UNL     1      51.226 -33.203 -11.604  0.00  0.00    +0.258 HD
ATOM    102  C   UNL     1      52.652 -32.575 -12.932  0.00  0.00    +0.376 C 
ATOM    103  N   UNL     1      52.880 -33.558 -13.816  0.00  0.00    -0.130 NA
ATOM    104  H   UNL     1      52.703 -34.528 -13.556  0.00  0.00    +0.306 HD
ATOM    105  N   UNL     1      52.907 -31.297 -13.291  0.00  0.00    -0.289 N 
ATOM    106  H   UNL     1      53.001 -30.576 -12.577  0.00  0.00    +0.255 HD
ATOM    107  H   UNL     1      53.003 -31.054 -14.277  0.00  0.00    +0.255 HD
ENDBRANCH  99 100
ENDBRANCH  98  99
ENDBRANCH  97  98
ENDBRANCH   1  97
TORSDOF 39
ENDMDL
