REMARK  Name = 6hld_ligand
REMARK  39 active torsions:
REMARK  status: ('A' for Active; 'I' for Inactive)
REMARK    1  A    between atoms: N_1  and  C_2
REMARK    2  A    between atoms: C_2  and  C_3
REMARK    3  A    between atoms: C_2  and  C_5
REMARK    4  A    between atoms: C_5  and  C_6
REMARK    5  A    between atoms: N_16  and  C_17
REMARK    6  A    between atoms: C_17  and  C_18
REMARK    7  A    between atoms: C_17  and  C_20
REMARK    8  A    between atoms: C_20  and  C_21
REMARK    9  A    between atoms: C_21  and  C_22
REMARK   10  A    between atoms: C_22  and  N_23
REMARK   11  A    between atoms: N_27  and  C_28
REMARK   12  A    between atoms: C_28  and  C_29
REMARK   13  A    between atoms: C_28  and  C_31
REMARK   14  A    between atoms: C_31  and  C_32
REMARK   15  A    between atoms: C_32  and  C_33
REMARK   16  A    between atoms: C_33  and  N_34
REMARK   17  A    between atoms: N_38  and  C_39
REMARK   18  A    between atoms: C_39  and  C_40
REMARK   19  A    between atoms: C_39  and  C_42
REMARK   20  A    between atoms: C_42  and  C_43
REMARK   21  A    between atoms: C_43  and  C_44
REMARK   22  A    between atoms: C_44  and  N_45
REMARK   23  A    between atoms: C_49  and  C_52
REMARK   24  A    between atoms: N_50  and  C_52
REMARK   25  A    between atoms: C_52  and  C_53
REMARK   26  A    between atoms: C_53  and  C_56
REMARK   27  A    between atoms: C_54  and  C_55
REMARK   28  A    between atoms: C_54  and  C_56
REMARK   29  A    between atoms: C_55  and  N_57
REMARK   30  A    between atoms: N_58  and  C_59
REMARK   31  A    between atoms: C_59  and  C_60
REMARK   32  A    between atoms: C_59  and  C_62
REMARK   33  A    between atoms: C_62  and  C_63
REMARK   34  A    between atoms: C_63  and  C_64
REMARK   35  A    between atoms: C_64  and  C_65
REMARK   36  A    between atoms: C_65  and  N_66
REMARK   37  A    between atoms: N_67  and  C_68
REMARK   38  A    between atoms: C_68  and  C_69
REMARK   39  A    between atoms: C_72  and  C_73
REMARK                            x       y       z     vdW  Elec       q    Type
REMARK                         _______ _______ _______ _____ _____    ______ ____
ROOT
ATOM      1  C   UNL     1      51.413 -34.289  -7.018  0.00  0.00    +0.159 C 
ENDROOT
BRANCH   1   2
ATOM      2  C   UNL     1      51.130 -33.057  -6.116  0.00  0.00    +0.234 C 
ATOM      3  N   UNL     1      49.836 -32.726  -5.953  0.00  0.00    -0.302 N 
ATOM      4  H   UNL     1      49.597 -32.019  -5.258  0.00  0.00    +0.150 HD
ATOM      5  O   UNL     1      52.054 -32.414  -5.619  0.00  0.00    -0.274 OA
BRANCH   3   6
ATOM      6  C   UNL     1      48.743 -33.345  -6.741  0.00  0.00    +0.159 C 
BRANCH   6   7
ATOM      7  C   UNL     1      49.303 -34.170  -7.914  0.00  0.00    +0.234 C 
ATOM      8  N   UNL     1      48.540 -34.182  -9.033  0.00  0.00    -0.302 N 
ATOM      9  H   UNL     1      48.577 -33.369  -9.648  0.00  0.00    +0.150 HD
ATOM     10  O   UNL     1      50.387 -34.753  -7.809  0.00  0.00    -0.274 OA
BRANCH   8  11
ATOM     11  C   UNL     1      47.662 -35.300  -9.413  0.00  0.00    +0.159 C 
BRANCH  11  12
ATOM     12  C   UNL     1      48.592 -36.367  -9.996  0.00  0.00    +0.234 C 
ATOM     13  N   UNL     1      48.542 -37.598  -9.452  0.00  0.00    -0.310 N 
ATOM     14  H   UNL     1      48.950 -37.749  -8.529  0.00  0.00    +0.149 HD
ATOM     15  O   UNL     1      49.365 -36.060 -10.894  0.00  0.00    -0.274 OA
BRANCH  13  16
ATOM     16  C   UNL     1      47.911 -38.736 -10.152  0.00  0.00    +0.139 C 
BRANCH  16  17
ATOM     17  C   UNL     1      48.967 -39.514 -10.764  0.00  0.00    -0.030 A 
ATOM     18  C   UNL     1      49.312 -39.373 -12.111  0.00  0.00    +0.006 A 
ATOM     19  C   UNL     1      50.352 -40.137 -12.688  0.00  0.00    +0.016 A 
ATOM     20  C   UNL     1      51.089 -41.058 -11.941  0.00  0.00    +0.065 A 
ATOM     21  C   UNL     1      50.746 -41.191 -10.592  0.00  0.00    +0.016 A 
ATOM     22  C   UNL     1      49.701 -40.435 -10.029  0.00  0.00    +0.006 A 
BRANCH  20  23
ATOM     23  C   UNL     1      52.130 -41.819 -12.522  0.00  0.00    +0.308 C 
ATOM     24  N   UNL     1      53.357 -41.768 -11.985  0.00  0.00    -0.099 NA
ATOM     25  H   UNL     1      53.531 -41.184 -11.167  0.00  0.00    +0.363 HD
ATOM     26  N   UNL     1      51.881 -42.547 -13.625  0.00  0.00    -0.247 N 
ATOM     27  H   UNL     1      52.055 -42.150 -14.548  0.00  0.00    +0.288 HD
ATOM     28  H   UNL     1      51.517 -43.496 -13.538  0.00  0.00    +0.288 HD
ENDBRANCH  20  23
ENDBRANCH  16  17
ENDBRANCH  13  16
ENDBRANCH  11  12
BRANCH  11  29
ATOM     29  C   UNL     1      46.661 -34.859 -10.509  0.00  0.00    +0.032 C 
BRANCH  29  30
ATOM     30  C   UNL     1      46.281 -36.029 -11.416  0.00  0.00    +0.007 C 
BRANCH  30  31
ATOM     31  C   UNL     1      45.194 -35.606 -12.448  0.00  0.00    +0.051 C 
BRANCH  31  32
ATOM     32  C   UNL     1      45.816 -35.646 -13.853  0.00  0.00    +0.127 C 
BRANCH  32  33
ATOM     33  N   UNL     1      45.408 -34.510 -14.703  0.00  0.00    +0.219 N 
ATOM     34  H   UNL     1      45.044 -33.760 -14.114  0.00  0.00    +0.199 HD
ATOM     35  H   UNL     1      44.684 -34.816 -15.353  0.00  0.00    +0.199 HD
ATOM     36  H   UNL     1      46.215 -34.171 -15.226  0.00  0.00    +0.199 HD
ENDBRANCH  32  33
ENDBRANCH  31  32
ENDBRANCH  30  31
ENDBRANCH  29  30
ENDBRANCH  11  29
ENDBRANCH   8  11
ENDBRANCH   6   7
BRANCH   6  37
ATOM     37  C   UNL     1      47.907 -32.196  -7.337  0.00  0.00    +0.032 C 
BRANCH  37  38
ATOM     38  C   UNL     1      48.076 -30.877  -6.554  0.00  0.00    +0.007 C 
BRANCH  38  39
ATOM     39  C   UNL     1      47.088 -30.840  -5.367  0.00  0.00    +0.051 C 
BRANCH  39  40
ATOM     40  C   UNL     1      46.935 -32.238  -4.738  0.00  0.00    +0.127 C 
BRANCH  40  41
ATOM     41  N   UNL     1      46.054 -32.207  -3.554  0.00  0.00    +0.219 N 
ATOM     42  H   UNL     1      46.584 -31.884  -2.745  0.00  0.00    +0.199 HD
ATOM     43  H   UNL     1      45.695 -33.145  -3.374  0.00  0.00    +0.199 HD
ATOM     44  H   UNL     1      45.275 -31.572  -3.727  0.00  0.00    +0.199 HD
ENDBRANCH  40  41
ENDBRANCH  39  40
ENDBRANCH  38  39
ENDBRANCH  37  38
ENDBRANCH   6  37
ENDBRANCH   3   6
ENDBRANCH   1   2
BRANCH   1  46
ATOM     45  C   UNL     1      49.444 -35.802  -6.863  0.00  0.00    +0.234 C 
ATOM     46  N   UNL     1      50.702 -35.472  -6.481  0.00  0.00    -0.302 N 
ATOM     47  H   UNL     1      51.176 -36.060  -5.796  0.00  0.00    +0.150 HD
ATOM     48  O   UNL     1      49.097 -35.863  -8.044  0.00  0.00    -0.274 OA
BRANCH  45  49
ATOM     49  C   UNL     1      48.418 -36.083  -5.731  0.00  0.00    +0.159 C 
BRANCH  49  51
ATOM     50  C   UNL     1      48.925 -34.236  -4.169  0.00  0.00    +0.234 C 
ATOM     51  N   UNL     1      48.914 -35.553  -4.444  0.00  0.00    -0.302 N 
ATOM     52  H   UNL     1      49.259 -36.207  -3.742  0.00  0.00    +0.150 HD
ATOM     53  O   UNL     1      47.959 -33.496  -4.360  0.00  0.00    -0.274 OA
BRANCH  50  54
ATOM     54  C   UNL     1      50.240 -33.708  -3.562  0.00  0.00    +0.159 C 
BRANCH  54  56
ATOM     55  C   UNL     1      52.283 -35.040  -3.973  0.00  0.00    +0.262 C 
ATOM     56  N   UNL     1      51.416 -34.087  -4.375  0.00  0.00    -0.299 N 
ATOM     57  H   UNL     1      51.576 -33.615  -5.265  0.00  0.00    +0.150 HD
ATOM     58  O   UNL     1      51.938 -36.185  -3.677  0.00  0.00    -0.270 OA
BRANCH  55  59
ATOM     59  C   UNL     1      53.777 -34.633  -3.887  0.00  0.00    +0.152 C 
BRANCH  59  60
ATOM     60  N   UNL     1      53.990 -33.225  -4.283  0.00  0.00    +0.228 N 
ATOM     61  H   UNL     1      54.908 -32.919  -3.961  0.00  0.00    +0.200 HD
ATOM     62  H   UNL     1      53.268 -32.642  -3.862  0.00  0.00    +0.200 HD
ATOM     63  H   UNL     1      53.942 -33.148  -5.299  0.00  0.00    +0.200 HD
ENDBRANCH  59  60
BRANCH  59  64
ATOM     64  C   UNL     1      54.294 -34.896  -2.465  0.00  0.00    +0.099 C 
BRANCH  64  65
ATOM     65  C   UNL     1      55.599 -34.426  -2.322  0.00  0.00    -0.034 A 
ATOM     66  C   UNL     1      55.895 -33.111  -2.666  0.00  0.00    -0.014 A 
ATOM     67  C   UNL     1      54.894 -32.277  -3.151  0.00  0.00    +0.009 A 
ATOM     68  C   UNL     1      55.188 -30.964  -3.496  0.00  0.00    +0.001 A 
ATOM     69  C   UNL     1      56.486 -30.484  -3.355  0.00  0.00    +0.001 A 
ATOM     70  C   UNL     1      57.487 -31.317  -2.871  0.00  0.00    +0.008 A 
ATOM     71  C   UNL     1      57.192 -32.631  -2.526  0.00  0.00    -0.018 A 
ATOM     72  C   UNL     1      58.194 -33.463  -2.040  0.00  0.00    +0.008 A 
ATOM     73  C   UNL     1      57.901 -34.776  -1.695  0.00  0.00    +0.001 A 
ATOM     74  C   UNL     1      56.605 -35.256  -1.835  0.00  0.00    +0.004 A 
ENDBRANCH  64  65
ENDBRANCH  59  64
ENDBRANCH  55  59
ENDBRANCH  54  56
BRANCH  54  75
ATOM     75  C   UNL     1      50.174 -32.180  -3.420  0.00  0.00    +0.035 C 
BRANCH  75  76
ATOM     76  C   UNL     1      49.534 -31.846  -2.067  0.00  0.00    +0.039 C 
BRANCH  76  77
ATOM     77  C   UNL     1      49.903 -32.892  -1.006  0.00  0.00    +0.196 C 
BRANCH  77  78
ATOM     78  N   UNL     1      51.315 -33.337  -1.103  0.00  0.00    -0.276 N 
ATOM     79  H   UNL     1      51.475 -34.342  -1.026  0.00  0.00    +0.258 HD
ATOM     80  C   UNL     1      52.422 -32.567  -1.281  0.00  0.00    +0.376 C 
ATOM     81  N   UNL     1      52.441 -31.255  -0.976  0.00  0.00    -0.289 N 
ATOM     82  H   UNL     1      51.693 -30.644  -1.305  0.00  0.00    +0.255 HD
ATOM     83  H   UNL     1      53.203 -30.872  -0.417  0.00  0.00    +0.255 HD
ATOM     84  N   UNL     1      53.535 -33.124  -1.779  0.00  0.00    -0.130 NA
ATOM     85  H   UNL     1      53.544 -34.116  -2.020  0.00  0.00    +0.306 HD
ENDBRANCH  77  78
ENDBRANCH  76  77
ENDBRANCH  75  76
ENDBRANCH  54  75
ENDBRANCH  50  54
ENDBRANCH  49  51
BRANCH  49  86
ATOM     86  C   UNL     1      47.038 -35.464  -6.036  0.00  0.00    +0.035 C 
BRANCH  86  87
ATOM     87  C   UNL     1      47.160 -33.978  -6.483  0.00  0.00    +0.039 C 
BRANCH  87  88
ATOM     88  C   UNL     1      48.119 -33.245  -5.534  0.00  0.00    +0.196 C 
BRANCH  88  89
ATOM     89  N   UNL     1      49.538 -33.576  -5.775  0.00  0.00    -0.276 N 
ATOM     90  H   UNL     1      49.763 -34.522  -6.084  0.00  0.00    +0.258 HD
ATOM     91  C   UNL     1      50.554 -32.703  -5.609  0.00  0.00    +0.376 C 
ATOM     92  N   UNL     1      50.958 -32.353  -4.357  0.00  0.00    -0.289 N 
ATOM     93  H   UNL     1      51.932 -32.480  -4.082  0.00  0.00    +0.255 HD
ATOM     94  H   UNL     1      50.287 -31.965  -3.695  0.00  0.00    +0.255 HD
ATOM     95  N   UNL     1      51.151 -32.171  -6.699  0.00  0.00    -0.130 NA
ATOM     96  H   UNL     1      50.833 -32.431  -7.633  0.00  0.00    +0.306 HD
ENDBRANCH  88  89
ENDBRANCH  87  88
ENDBRANCH  86  87
ENDBRANCH  49  86
ENDBRANCH  45  49
ENDBRANCH   1  46
BRANCH   1  97
ATOM     97  C   UNL     1      50.998 -34.055  -8.490  0.00  0.00    +0.035 C 
BRANCH  97  98
ATOM     98  C   UNL     1      50.490 -35.371  -9.139  0.00  0.00    +0.039 C 
BRANCH  98  99
ATOM     99  C   UNL     1      49.540 -36.091  -8.167  0.00  0.00    +0.196 C 
BRANCH  99 100
ATOM    100  N   UNL     1      48.120 -35.756  -8.403  0.00  0.00    -0.276 N 
ATOM    101  H   UNL     1      47.427 -36.501  -8.322  0.00  0.00    +0.258 HD
ATOM    102  C   UNL     1      47.691 -34.510  -8.721  0.00  0.00    +0.376 C 
ATOM    103  N   UNL     1      47.237 -34.255  -9.957  0.00  0.00    -0.130 NA
ATOM    104  H   UNL     1      47.214 -34.998 -10.655  0.00  0.00    +0.306 HD
ATOM    105  N   UNL     1      47.727 -33.508  -7.815  0.00  0.00    -0.289 N 
ATOM    106  H   UNL     1      48.302 -33.598  -6.978  0.00  0.00    +0.255 HD
ATOM    107  H   UNL     1      47.178 -32.662  -7.968  0.00  0.00    +0.255 HD
ENDBRANCH  99 100
ENDBRANCH  98  99
ENDBRANCH  97  98
ENDBRANCH   1  97
TORSDOF 39
