6mo0_ligand
     RDKit          3D

 63 67  0  0  0  0  0  0  0  0999 V2000
   13.9774  -61.6278   17.6165 N   0  0  0  0  0  4  0  0  0  0  0  0
   13.9545  -63.0793   17.9256 C   0  0  0  0  0  0  0  0  0  0  0  0
   13.3523  -63.9208   16.8064 C   0  0  0  0  0  0  0  0  0  0  0  0
   12.8084  -63.2198   15.7137 C   0  0  0  0  0  0  0  0  0  0  0  0
   12.1679  -63.9568   14.7021 C   0  0  0  0  0  0  0  0  0  0  0  0
   12.1500  -65.3901   14.8207 C   0  0  0  0  0  0  0  0  0  0  0  0
   12.7480  -66.1300   15.8330 C   0  0  0  0  0  0  0  0  0  0  0  0
   13.3523  -65.3516   16.8788 C   0  0  0  0  0  0  0  0  0  0  0  0
   11.4912  -66.1087   13.7477 C   0  0  0  0  0  0  0  0  0  0  0  0
   10.3753  -65.6215   13.0491 C   0  0  0  0  0  0  0  0  0  0  0  0
    9.6160  -64.3797   13.4999 C   0  0  0  0  0  0  0  0  0  0  0  0
    9.8589  -63.7954   14.7907 C   0  0  0  0  0  0  0  0  0  0  0  0
    9.0314  -62.6626   15.1728 C   0  0  0  0  0  0  0  0  0  0  0  0
    7.9932  -62.1684   14.2231 C   0  0  0  0  0  0  0  0  0  0  0  0
    7.1626  -61.0229   14.6854 C   0  0  0  0  0  0  0  0  0  0  0  0
    7.4880  -60.2206   15.8234 C   0  0  0  0  0  0  0  0  0  0  0  0
    6.4843  -59.2184   15.9194 O   0  0  0  0  0  0  0  0  0  0  0  0
    5.6273  -59.4208   14.7936 C   0  0  0  0  0  0  0  0  0  0  0  0
    6.0197  -60.5375   14.0406 C   0  0  0  0  0  0  0  0  0  0  0  0
    7.7217  -62.7790   12.9833 C   0  0  0  0  0  0  0  0  0  0  0  0
    8.5313  -63.8872   12.6528 C   0  0  0  0  0  0  0  0  0  0  0  0
    9.8477  -66.4083   11.9796 N   0  0  0  0  0  0  0  0  0  0  0  0
   10.4855  -67.5467   11.5645 C   0  0  0  0  0  0  0  0  0  0  0  0
   11.6923  -67.8887   12.2422 C   0  0  0  0  0  0  0  0  0  0  0  0
   12.1307  -67.1999   13.3247 N   0  0  0  0  0  0  0  0  0  0  0  0
    9.9960  -68.3865   10.5097 O   0  0  0  0  0  0  0  0  0  0  0  0
    8.5554  -68.6340   10.3491 C   0  0  0  0  0  0  0  0  0  0  0  0
    8.3270  -70.1509   10.1908 C   0  0  1  0  0  0  0  0  0  0  0  0
    6.8037  -70.4891   10.1912 C   0  0  0  0  0  0  0  0  0  0  0  0
    6.6034  -72.0127   10.0178 C   0  0  0  0  0  0  0  0  0  0  0  0
    7.3836  -72.4768    8.7786 N   0  0  0  0  0  4  0  0  0  0  0  0
    8.8326  -72.1250    8.6718 C   0  0  0  0  0  0  0  0  0  0  0  0
    9.0721  -70.6056    8.9175 C   0  0  0  0  0  0  0  0  0  0  0  0
   14.5842  -61.4615   16.8290 H   0  0  0  0  0  0  0  0  0  0  0  0
   14.3186  -61.1191   18.4170 H   0  0  0  0  0  0  0  0  0  0  0  0
   13.0447  -61.3170   17.3934 H   0  0  0  0  0  0  0  0  0  0  0  0
   13.3596  -63.2334   18.8379 H   0  0  0  0  0  0  0  0  0  0  0  0
   14.9870  -63.4163   18.0997 H   0  0  0  0  0  0  0  0  0  0  0  0
   12.8814  -62.1399   15.6538 H   0  0  0  0  0  0  0  0  0  0  0  0
   11.7021  -63.4601   13.8587 H   0  0  0  0  0  0  0  0  0  0  0  0
   12.7581  -67.2139   15.8339 H   0  0  0  0  0  0  0  0  0  0  0  0
   13.8102  -65.8491   17.7261 H   0  0  0  0  0  0  0  0  0  0  0  0
   10.6264  -64.1827   15.4511 H   0  0  0  0  0  0  0  0  0  0  0  0
    9.1673  -62.1834   16.1355 H   0  0  0  0  0  0  0  0  0  0  0  0
    8.3404  -60.3519   16.4883 H   0  0  0  0  0  0  0  0  0  0  0  0
    4.7757  -58.7870   14.5506 H   0  0  0  0  0  0  0  0  0  0  0  0
    5.5397  -60.9387   13.1493 H   0  0  0  0  0  0  0  0  0  0  0  0
    6.9397  -62.4202   12.3239 H   0  0  0  0  0  0  0  0  0  0  0  0
    8.3378  -64.4016   11.7184 H   0  0  0  0  0  0  0  0  0  0  0  0
   12.2780  -68.7260   11.8805 H   0  0  0  0  0  0  0  0  0  0  0  0
    8.1874  -68.1094    9.4551 H   0  0  0  0  0  0  0  0  0  0  0  0
    8.0164  -68.2696   11.2361 H   0  0  0  0  0  0  0  0  0  0  0  0
    8.7783  -70.6664   11.0514 H   0  0  0  0  0  0  0  0  0  0  0  0
    6.3123  -69.9599    9.3615 H   0  0  0  0  0  0  0  0  0  0  0  0
    6.3591  -70.1689   11.1450 H   0  0  0  0  0  0  0  0  0  0  0  0
    5.5337  -72.2323    9.8848 H   0  0  0  0  0  0  0  0  0  0  0  0
    6.9777  -72.5386   10.9086 H   0  0  0  0  0  0  0  0  0  0  0  0
    6.9225  -72.0840    7.9729 H   0  0  0  0  0  0  0  0  0  0  0  0
    7.3188  -73.4821    8.7460 H   0  0  0  0  0  0  0  0  0  0  0  0
    9.1900  -72.3846    7.6644 H   0  0  0  0  0  0  0  0  0  0  0  0
    9.3962  -72.7011    9.4206 H   0  0  0  0  0  0  0  0  0  0  0  0
   10.1497  -70.4224    9.0414 H   0  0  0  0  0  0  0  0  0  0  0  0
    8.6998  -70.0343    8.0544 H   0  0  0  0  0  0  0  0  0  0  0  0
  1  2  1  0
  2  3  1  0
  3  4  2  0
  3  8  1  0
  4  5  1  0
  5  6  2  0
  6  7  1  0
  6  9  1  0
  7  8  2  0
  9 10  1  0
  9 25  2  0
 10 11  1  0
 10 22  2  0
 11 12  2  0
 11 21  1  0
 12 13  1  0
 13 14  2  0
 14 15  1  0
 14 20  1  0
 15 16  2  0
 15 19  1  0
 16 17  1  0
 17 18  1  0
 18 19  2  0
 20 21  2  0
 22 23  1  0
 23 24  2  0
 23 26  1  0
 24 25  1  0
 26 27  1  0
 27 28  1  0
 28 29  1  0
 28 33  1  0
 29 30  1  0
 30 31  1  0
 31 32  1  0
 32 33  1  0
  1 34  1  0
  1 35  1  0
  1 36  1  0
  2 37  1  0
  2 38  1  0
  4 39  1  0
  5 40  1  0
  7 41  1  0
  8 42  1  0
 12 43  1  0
 13 44  1  0
 16 45  1  0
 18 46  1  0
 19 47  1  0
 20 48  1  0
 21 49  1  0
 24 50  1  0
 27 51  1  0
 27 52  1  0
 28 53  1  1
 29 54  1  0
 29 55  1  0
 30 56  1  0
 30 57  1  0
 31 58  1  0
 31 59  1  0
 32 60  1  0
 32 61  1  0
 33 62  1  0
 33 63  1  0
M  CHG  2   1   1  31   1
M  END
