REMARK  Name = 6t6a_ligand
REMARK  0 active torsions:
REMARK  status: ('A' for Active; 'I' for Inactive)
REMARK                            x       y       z     vdW  Elec       q    Type
REMARK                         _______ _______ _______ _____ _____    ______ ____
ROOT
ATOM      1  C   UNL     1       6.535   9.408  26.580  0.00  0.00    +0.000 A 
ATOM      2  C   UNL     1       5.968  10.730  26.175  0.00  0.00    +0.000 A 
ATOM      3  C   UNL     1       4.655  10.982  26.418  0.00  0.00    +0.000 A 
ATOM      4  C   UNL     1       7.851   9.093  26.375  0.00  0.00    +0.000 A 
ATOM      5  C   UNL     1       8.877   9.800  25.806  0.00  0.00    +0.000 A 
ATOM      6  C   UNL     1      10.124   9.214  25.726  0.00  0.00    +0.000 A 
ATOM      7  C   UNL     1      10.328   7.928  26.204  0.00  0.00    +0.000 A 
ATOM      8  C   UNL     1       9.281   7.217  26.768  0.00  0.00    +0.000 A 
ATOM      9  C   UNL     1       8.022   7.793  26.856  0.00  0.00    +0.000 A 
ATOM     10  O   UNL     1       6.668  11.625  25.619  0.00  0.00    +0.000 OA
ATOM     11  C   UNL     1       3.690  10.215  26.979  0.00  0.00    +0.000 A 
ATOM     12  C   UNL     1       3.639   8.956  27.499  0.00  0.00    +0.000 A 
ATOM     13  C   UNL     1       4.584   8.039  27.625  0.00  0.00    +0.000 A 
ATOM     14  C   UNL     1       5.954   8.295  27.172  0.00  0.00    +0.000 A 
ATOM     15  N   UNL     1       6.848   7.315  27.345  0.00  0.00    +0.000 N 
ATOM     16 CL   UNL     1       9.572   5.541  27.374  0.00  0.00    +0.000 Cl
ATOM     17  H   UNL     1       6.680   6.389  27.763  0.00  0.00    +0.000 HD
ENDROOT
TORSDOF 0
