MODEL 1
REMARK VINA RESULT:    -9.638      0.000      0.000
REMARK INTER + INTRA:          -9.638
REMARK INTER:                  -9.638
REMARK INTRA:                   0.000
REMARK UNBOUND:                 0.000
REMARK  Name = 6t6a_ligand
REMARK  0 active torsions:
REMARK  status: ('A' for Active; 'I' for Inactive)
REMARK                            x       y       z     vdW  Elec       q    Type
REMARK                         _______ _______ _______ _____ _____    ______ ____
ROOT
ATOM      1  C   UNL     1       5.530  10.281  27.943  0.00  0.00    +0.000 A 
ATOM      2  C   UNL     1       4.855  11.431  27.268  0.00  0.00    +0.000 A 
ATOM      3  C   UNL     1       3.706  11.921  27.802  0.00  0.00    +0.000 A 
ATOM      4  C   UNL     1       6.695   9.746  27.465  0.00  0.00    +0.000 A 
ATOM      5  C   UNL     1       7.460  10.061  26.373  0.00  0.00    +0.000 A 
ATOM      6  C   UNL     1       8.604   9.329  26.129  0.00  0.00    +0.000 A 
ATOM      7  C   UNL     1       8.964   8.286  26.971  0.00  0.00    +0.000 A 
ATOM      8  C   UNL     1       8.178   7.968  28.066  0.00  0.00    +0.000 A 
ATOM      9  C   UNL     1       7.025   8.696  28.325  0.00  0.00    +0.000 A 
ATOM     10  O   UNL     1       5.318  11.966  26.219  0.00  0.00    +0.000 OA
ATOM     11  C   UNL     1       2.996  11.540  28.890  0.00  0.00    +0.000 A 
ATOM     12  C   UNL     1       3.131  10.571  29.839  0.00  0.00    +0.000 A 
ATOM     13  C   UNL     1       4.064   9.646  29.997  0.00  0.00    +0.000 A 
ATOM     14  C   UNL     1       5.192   9.542  29.068  0.00  0.00    +0.000 A 
ATOM     15  N   UNL     1       6.094   8.583  29.307  0.00  0.00    +0.000 N 
ATOM     16 CL   UNL     1       8.665   6.600  29.140  0.00  0.00    +0.000 Cl
ATOM     17  H   UNL     1       6.083   7.899  30.078  0.00  0.00    +0.000 HD
ENDROOT
TORSDOF 0
ENDMDL
MODEL 2
REMARK VINA RESULT:    -9.324      2.130      3.000
REMARK INTER + INTRA:          -9.324
REMARK INTER:                  -9.324
REMARK INTRA:                   0.000
REMARK UNBOUND:                 0.000
REMARK  Name = 6t6a_ligand
REMARK  0 active torsions:
REMARK  status: ('A' for Active; 'I' for Inactive)
REMARK                            x       y       z     vdW  Elec       q    Type
REMARK                         _______ _______ _______ _____ _____    ______ ____
ROOT
ATOM      1  C   UNL     1       5.006  10.620  27.519  0.00  0.00    +0.000 A 
ATOM      2  C   UNL     1       3.861  11.335  28.160  0.00  0.00    +0.000 A 
ATOM      3  C   UNL     1       3.416  10.908  29.371  0.00  0.00    +0.000 A 
ATOM      4  C   UNL     1       5.510  11.004  26.307  0.00  0.00    +0.000 A 
ATOM      5  C   UNL     1       5.148  12.008  25.449  0.00  0.00    +0.000 A 
ATOM      6  C   UNL     1       5.847  12.158  24.268  0.00  0.00    +0.000 A 
ATOM      7  C   UNL     1       6.888  11.297  23.954  0.00  0.00    +0.000 A 
ATOM      8  C   UNL     1       7.239  10.277  24.823  0.00  0.00    +0.000 A 
ATOM      9  C   UNL     1       6.547  10.115  26.014  0.00  0.00    +0.000 A 
ATOM     10  O   UNL     1       3.295  12.328  27.618  0.00  0.00    +0.000 OA
ATOM     11  C   UNL     1       3.823   9.884  30.159  0.00  0.00    +0.000 A 
ATOM     12  C   UNL     1       4.784   8.922  30.070  0.00  0.00    +0.000 A 
ATOM     13  C   UNL     1       5.675   8.681  29.122  0.00  0.00    +0.000 A 
ATOM     14  C   UNL     1       5.746   9.516  27.919  0.00  0.00    +0.000 A 
ATOM     15  N   UNL     1       6.683   9.206  27.015  0.00  0.00    +0.000 N 
ATOM     16 CL   UNL     1       8.593   9.166  24.385  0.00  0.00    +0.000 Cl
ATOM     17  H   UNL     1       7.366   8.438  27.068  0.00  0.00    +0.000 HD
ENDROOT
TORSDOF 0
ENDMDL
MODEL 3
REMARK VINA RESULT:    -9.117      1.892      2.915
REMARK INTER + INTRA:          -9.117
REMARK INTER:                  -9.117
REMARK INTRA:                   0.000
REMARK UNBOUND:                 0.000
REMARK  Name = 6t6a_ligand
REMARK  0 active torsions:
REMARK  status: ('A' for Active; 'I' for Inactive)
REMARK                            x       y       z     vdW  Elec       q    Type
REMARK                         _______ _______ _______ _____ _____    ______ ____
ROOT
ATOM      1  C   UNL     1       5.627   9.813  28.258  0.00  0.00    +0.000 A 
ATOM      2  C   UNL     1       4.468  10.194  29.120  0.00  0.00    +0.000 A 
ATOM      3  C   UNL     1       3.643  11.192  28.707  0.00  0.00    +0.000 A 
ATOM      4  C   UNL     1       6.489   8.810  28.609  0.00  0.00    +0.000 A 
ATOM      5  C   UNL     1       6.535   7.993  29.707  0.00  0.00    +0.000 A 
ATOM      6  C   UNL     1       7.545   7.057  29.798  0.00  0.00    +0.000 A 
ATOM      7  C   UNL     1       8.502   6.957  28.799  0.00  0.00    +0.000 A 
ATOM      8  C   UNL     1       8.454   7.796  27.697  0.00  0.00    +0.000 A 
ATOM      9  C   UNL     1       7.444   8.741  27.591  0.00  0.00    +0.000 A 
ATOM     10  O   UNL     1       4.223   9.617  30.219  0.00  0.00    +0.000 OA
ATOM     11  C   UNL     1       3.675  11.972  27.600  0.00  0.00    +0.000 A 
ATOM     12  C   UNL     1       4.492  12.073  26.514  0.00  0.00    +0.000 A 
ATOM     13  C   UNL     1       5.576  11.388  26.187  0.00  0.00    +0.000 A 
ATOM     14  C   UNL     1       6.085  10.318  27.049  0.00  0.00    +0.000 A 
ATOM     15  N   UNL     1       7.182   9.672  26.637  0.00  0.00    +0.000 N 
ATOM     16 CL   UNL     1       9.718   7.650  26.416  0.00  0.00    +0.000 Cl
ATOM     17  H   UNL     1       7.717   9.846  25.775  0.00  0.00    +0.000 HD
ENDROOT
TORSDOF 0
ENDMDL
MODEL 4
REMARK VINA RESULT:    -9.067      1.680      3.594
REMARK INTER + INTRA:          -9.067
REMARK INTER:                  -9.067
REMARK INTRA:                   0.000
REMARK UNBOUND:                 0.000
REMARK  Name = 6t6a_ligand
REMARK  0 active torsions:
REMARK  status: ('A' for Active; 'I' for Inactive)
REMARK                            x       y       z     vdW  Elec       q    Type
REMARK                         _______ _______ _______ _____ _____    ______ ____
ROOT
ATOM      1  C   UNL     1       5.519  10.569  26.975  0.00  0.00    +0.000 A 
ATOM      2  C   UNL     1       4.408  11.516  26.654  0.00  0.00    +0.000 A 
ATOM      3  C   UNL     1       4.458  12.215  25.490  0.00  0.00    +0.000 A 
ATOM      4  C   UNL     1       5.527   9.826  28.124  0.00  0.00    +0.000 A 
ATOM      5  C   UNL     1       4.644   9.760  29.170  0.00  0.00    +0.000 A 
ATOM      6  C   UNL     1       4.920   8.909  30.220  0.00  0.00    +0.000 A 
ATOM      7  C   UNL     1       6.076   8.143  30.219  0.00  0.00    +0.000 A 
ATOM      8  C   UNL     1       6.969   8.225  29.162  0.00  0.00    +0.000 A 
ATOM      9  C   UNL     1       6.705   9.077  28.099  0.00  0.00    +0.000 A 
ATOM     10  O   UNL     1       3.420  11.686  27.426  0.00  0.00    +0.000 OA
ATOM     11  C   UNL     1       5.385  12.235  24.503  0.00  0.00    +0.000 A 
ATOM     12  C   UNL     1       6.574  11.605  24.282  0.00  0.00    +0.000 A 
ATOM     13  C   UNL     1       7.225  10.717  25.015  0.00  0.00    +0.000 A 
ATOM     14  C   UNL     1       6.687  10.250  26.295  0.00  0.00    +0.000 A 
ATOM     15  N   UNL     1       7.408   9.345  26.968  0.00  0.00    +0.000 N 
ATOM     16 CL   UNL     1       8.472   7.225  29.190  0.00  0.00    +0.000 Cl
ATOM     17  H   UNL     1       8.310   8.937  26.685  0.00  0.00    +0.000 HD
ENDROOT
TORSDOF 0
ENDMDL
